                                   MODFLOW 6
                U.S. GEOLOGICAL SURVEY MODULAR HYDROLOGIC MODEL
                          GROUNDWATER FLOW MODEL (GWF)
                            VERSION 6.3.0 03/04/2022

   MODFLOW 6 compiled Mar 02 2022 15:29:04 with Intel(R) Fortran Intel(R) 64
   Compiler Classic for applications running on Intel(R) 64, Version 2021.5.0
                             Build 20211109_000000

This software has been approved for release by the U.S. Geological 
Survey (USGS). Although the software has been subjected to rigorous 
review, the USGS reserves the right to update the software as needed 
pursuant to further analysis and review. No warranty, expressed or 
implied, is made by the USGS or the U.S. Government as to the 
functionality of the software and related material nor shall the 
fact of release constitute any such warranty. Furthermore, the 
software is released on condition that neither the USGS nor the U.S. 
Government shall be held liable for any damages resulting from its 
authorized or unauthorized use. Also refer to the USGS Water 
Resources Software User Rights Notice for complete use, copyright, 
and distribution information.


As a work of the United States Government, this USGS product is 
in the public domain within the United States. You can copy, 
modify, distribute, and perform the work, even for commercial 
purposes, all without asking permission. Additionally, USGS 
waives copyright and related rights in the work worldwide 
through CC0 1.0 Universal Public Domain Dedication 
(https://creativecommons.org/publicdomain/zero/1.0/).

The following GNU Lesser General Public License (LGPL) libraries
are used in this USGS product:

    SPARSKIT version 2.0
      ilut, luson, and qsplit 
      (https://www-users.cse.umn.edu/~saad/software/SPARSKIT/)

    RCM - Reverse Cuthill McKee Ordering
      (https://people.math.sc.edu/Burkardt/f_src/rcm/rcm.html)

    BLAS - Basic Linear Algebra Subprograms Level 1
      (https://people.math.sc.edu/Burkardt/f_src/blas1_d/blas1_d.html)

    SPARSEKIT - Sparse Matrix Utility Package
      amux, dperm, dvperm, rperm, and cperm
      (https://people.sc.fsu.edu/~jburkardt/f77_src/sparsekit/sparsekit.html)

The following BSD-3 License libraries are used in this USGS product:

    Modern Fortran DAG Library
      Copyright (c) 2018, Jacob Williams
      All rights reserved.
      (https://github.com/jacobwilliams/daglib)

MODFLOW 6 compiler options: /Isrc\libmf6core.a.p /Isrc /I..\src
/Isrc\libmf6_external.a.p /MTd /nologo /warn:general /warn:truncated_source
/stand:f08 /Zi /traceback /O2 /Zi /fpe:0 /fpp /Qdiag-disable:7416
/Qdiag-disable:7025 /Qdiag-disable:5268
/Fdsrc\libmf6core.a.p\Utilities_compilerversion.F90.pdb
/module:src\libmf6core.a.p
/Fosrc/libmf6core.a.p/Utilities_compilerversion.F90.obj /c

System command used to initiate simulation:
C:\models\python-for-hydrology_mu\notebooks\part1_flopy\data\mumodel_mf6\mf6.exe

MODFLOW was compiled using uniform precision.

Real Variables
  KIND: 8
  TINY (smallest non-zero value):    2.225074-308
  HUGE (largest value):    1.797693+308
  PRECISION: 15
  BIT SIZE: 64

Integer Variables
  KIND: 4
  HUGE (largest value): 2147483647
  BIT SIZE: 32

Long Integer Variables
  KIND: 8
  HUGE (largest value): 9223372036854775807
  BIT SIZE: 64

Logical Variables
  KIND: 4
  BIT SIZE: 32
 

 OPENED mumodel.dis
 FILE TYPE:DIS6                   UNIT 1005   STATUS:OLD                 
 FORMAT:FORMATTED              ACCESS:SEQUENTIAL          
 ACTION:READ                


 OPENED mumodel.ic
 FILE TYPE:IC6                    UNIT 1006   STATUS:OLD                 
 FORMAT:FORMATTED              ACCESS:SEQUENTIAL          
 ACTION:READ                


 OPENED mumodel.npf
 FILE TYPE:NPF6                   UNIT 1007   STATUS:OLD                 
 FORMAT:FORMATTED              ACCESS:SEQUENTIAL          
 ACTION:READ                


 OPENED mumodel.sto
 FILE TYPE:STO6                   UNIT 1008   STATUS:OLD                 
 FORMAT:FORMATTED              ACCESS:SEQUENTIAL          
 ACTION:READ                


 OPENED mumodel.oc
 FILE TYPE:OC6                    UNIT 1009   STATUS:OLD                 
 FORMAT:FORMATTED              ACCESS:SEQUENTIAL          
 ACTION:READ                


 OPENED mumodel.wel
 FILE TYPE:WEL6                   UNIT 1010   STATUS:OLD                 
 FORMAT:FORMATTED              ACCESS:SEQUENTIAL          
 ACTION:READ                


 OPENED mumodel.rch
 FILE TYPE:RCH6                   UNIT 1011   STATUS:OLD                 
 FORMAT:FORMATTED              ACCESS:SEQUENTIAL          
 ACTION:READ                


 OPENED mumodel.ib.ibound.chd
 FILE TYPE:CHD6                   UNIT 1012   STATUS:OLD                 
 FORMAT:FORMATTED              ACCESS:SEQUENTIAL          
 ACTION:READ                


 DIS -- STRUCTURED GRID DISCRETIZATION PACKAGE, VERSION 2 : 3/27/2014 - INPUT READ FROM UNIT 1005


 # DIS6 input file, prepared by MF5to6 on 1/30/2024 at 15:47:34.
 PROCESSING DISCRETIZATION OPTIONS
    UNKNOWN UNIT: 
    UNDEFINED
    SETTING TO: 
    UNDEFINED
 END OF DISCRETIZATION OPTIONS
 MODEL LENGTH UNIT IS UNDEFINED
 PROCESSING DISCRETIZATION DIMENSIONS
    NLAY =       1
    NROW =      21
    NCOL =       9
 END OF DISCRETIZATION DIMENSIONS
 PROCESSING GRIDDATA

                     DELR =   500.0000    

                     DELC =   500.0000    

 TOP ELEVATION OF LAYER 1 =   1100.000    

   MODEL LAYER BOTTOM EL. =   980.0000     FOR LAYER 1
 END PROCESSING GRIDDATA

 NPF -- NODE PROPERTY FLOW PACKAGE, VERSION 1, 3/30/2015 INPUT READ FROM UNIT 1007


 # File generated by Flopy version 3.5.0 on 02/01/2024 at 17:26:07.
 PROCESSING NPF OPTIONS
    CELL-BY-CELL FLOW INFORMATION WILL BE SAVED TO BINARY FILE WHENEVER ICBCFL IS NOT ZERO.
    VERTICAL CONDUCTANCE VARIES WITH WATER TABLE.
    VERTICAL CONDUCTANCE ACCOUNTS FOR DEWATERED PORTION OF AN UNDERLYING CELL.
    VERTICAL FLOW WILL BE ADJUSTED FOR PERCHED CONDITIONS.
 END OF NPF OPTIONS

 WEL   -- WEL PACKAGE, VERSION 8, 2/22/2014 INPUT READ FROM UNIT 1010
 # WEL6 input file, prepared by MF5to6 on 1/30/2024 at 15:47:34.

 PROCESSING WEL OPTIONS
    AUXILIARY WEL VARIABLE: IFACE           
    LISTS OF WEL CELLS WILL BE PRINTED.
    WEL FLOWS WILL BE PRINTED TO LISTING FILE.
    FLOWS WILL BE SAVED TO BUDGET FILE SPECIFIED IN OUTPUT CONTROL
 END OF WEL OPTIONS

 PROCESSING WEL DIMENSIONS
    MAXBOUND =       3
 END OF WEL DIMENSIONS

 RCH   -- RCH PACKAGE, VERSION 8, 2/22/2014 INPUT READ FROM UNIT 1011
 # File generated by Flopy version 3.5.0 on 02/01/2024 at 17:40:22.

 PROCESSING RCH OPTIONS
    RECHARGE INPUT WILL BE READ AS ARRAY(S).
    FLOWS WILL BE SAVED TO BUDGET FILE SPECIFIED IN OUTPUT CONTROL
 END OF RCHA OPTIONS

 CHD   -- CHD PACKAGE, VERSION 8, 2/22/2014 INPUT READ FROM UNIT 1012
 # CHD6 input file, prepared by MF5to6 on 1/30/2024 at 15:47:34.

 PROCESSING CHD OPTIONS
    LISTS OF CHD CELLS WILL BE PRINTED.
    CHD FLOWS WILL BE PRINTED TO LISTING FILE.
 END OF CHD OPTIONS

 PROCESSING CHD DIMENSIONS
    MAXBOUND =      18
 END OF CHD DIMENSIONS

 IC -- INITIAL CONDITIONS PACKAGE, VERSION 8, 3/28/2015 INPUT READ FROM UNIT 1006
 # IC6 input file, prepared by MF5to6 on 1/30/2024 at 15:47:34.
 PROCESSING IC OPTIONS
 END OF IC OPTIONS
 PROCESSING GRIDDATA

     INITIAL HEAD FOR LAYER 1

               1          2          3          4          5          6          7          8          9
 .......................................................................................................
   1   1.000E+03  1.000E+03  1.000E+03  1.000E+03  1.000E+03  1.000E+03  1.000E+03  1.000E+03  1.000E+03
   2   1.100E+03  1.100E+03  1.100E+03  1.100E+03  1.100E+03  1.100E+03  1.100E+03  1.100E+03  1.100E+03
   3   1.100E+03  1.100E+03  1.100E+03  1.100E+03  1.100E+03  1.100E+03  1.100E+03  1.100E+03  1.100E+03
   4   1.100E+03  1.100E+03  1.100E+03  1.100E+03  1.100E+03  1.100E+03  1.100E+03  1.100E+03  1.100E+03
   5   1.100E+03  1.100E+03  1.100E+03  1.100E+03  1.100E+03  1.100E+03  1.100E+03  1.100E+03  1.100E+03
   6   1.100E+03  1.100E+03  1.100E+03  1.100E+03  1.100E+03  1.100E+03  1.100E+03  1.100E+03  1.100E+03
   7   1.100E+03  1.100E+03  1.100E+03  1.100E+03  1.100E+03  1.100E+03  1.100E+03  1.100E+03  1.100E+03
   8   1.100E+03  1.100E+03  1.100E+03  1.100E+03  1.100E+03  1.100E+03  1.100E+03  1.100E+03  1.100E+03
   9   1.100E+03  1.100E+03  1.100E+03  1.100E+03  1.100E+03  1.100E+03  1.100E+03  1.100E+03  1.100E+03
  10   1.100E+03  1.100E+03  1.100E+03  1.100E+03  1.100E+03  1.100E+03  1.100E+03  1.100E+03  1.100E+03
  11   1.100E+03  1.100E+03  1.100E+03  1.100E+03  1.100E+03  1.100E+03  1.100E+03  1.100E+03  1.100E+03
  12   1.100E+03  1.100E+03  1.100E+03  1.100E+03  1.100E+03  1.100E+03  1.100E+03  1.100E+03  1.100E+03
  13   1.100E+03  1.100E+03  1.100E+03  1.100E+03  1.100E+03  1.100E+03  1.100E+03  1.100E+03  1.100E+03
  14   1.100E+03  1.100E+03  1.100E+03  1.100E+03  1.100E+03  1.100E+03  1.100E+03  1.100E+03  1.100E+03
  15   1.100E+03  1.100E+03  1.100E+03  1.100E+03  1.100E+03  1.100E+03  1.100E+03  1.100E+03  1.100E+03
  16   1.100E+03  1.100E+03  1.100E+03  1.100E+03  1.100E+03  1.100E+03  1.100E+03  1.100E+03  1.100E+03
  17   1.100E+03  1.100E+03  1.100E+03  1.100E+03  1.100E+03  1.100E+03  1.100E+03  1.100E+03  1.100E+03
  18   1.100E+03  1.100E+03  1.100E+03  1.100E+03  1.100E+03  1.100E+03  1.100E+03  1.100E+03  1.100E+03
  19   1.100E+03  1.100E+03  1.100E+03  1.100E+03  1.100E+03  1.100E+03  1.100E+03  1.100E+03  1.100E+03
  20   1.100E+03  1.100E+03  1.100E+03  1.100E+03  1.100E+03  1.100E+03  1.100E+03  1.100E+03  1.100E+03
  21   1.000E+03  1.000E+03  1.000E+03  1.000E+03  1.000E+03  1.000E+03  1.000E+03  1.000E+03  1.000E+03
 END PROCESSING GRIDDATA
 PROCESSING GRIDDATA

                ICELLTYPE = 1 FOR LAYER 1

                        K =   50.00000    
 K33 not provided.  Assuming K33 = K.
 K22 not provided.  Assuming K22 = K.
 END PROCESSING GRIDDATA

 STO -- STORAGE PACKAGE, VERSION 1, 5/19/2014 INPUT READ FROM UNIT 1008


 # STO6 input file, prepared by MF5to6 on 1/30/2024 at 15:47:34.
 PROCESSING STORAGE OPTIONS
 END OF STORAGE OPTIONS
 PROCESSING GRIDDATA

                 ICONVERT = 1 FOR LAYER 1

         SPECIFIC STORAGE =  0.1000000     FOR LAYER 1

           SPECIFIC YIELD =  0.1000000     FOR LAYER 1
 END PROCESSING GRIDDATA
    BINARY GRID INFORMATION WILL BE WRITTEN TO:
      UNIT NUMBER: 1014
      FILE NAME: C:\models\python-for-hydrology_mu\notebooks\part1_flopy\data\mumodel_mf6\mumodel.dis.grb

 OPENED C:\models\python-for-hydrology_mu\notebooks\part1_flopy\data\mumodel_mf6\mumodel.dis.grb
 FILE TYPE:DATA(BINARY)   UNIT 1014   STATUS:REPLACE             
 FORMAT:UNFORMATTED            ACCESS:STREAM              
 ACTION:READWRITE           

      THE LAST TIME STEP WILL BE PRINTED
      THE LAST TIME STEP WILL BE PRINTED
 # OC6 input file, prepared by MF5to6 on 1/30/2024 at 15:47:34.

 PROCESSING OC OPTIONS

    BUDGET INFORMATION WILL BE WRITTEN TO:
      UNIT NUMBER: 1015
      FILE NAME: mumodel_7-2b.cbb

 OPENED mumodel_7-2b.cbb
 FILE TYPE:DATA(BINARY)   UNIT 1015   STATUS:REPLACE             
 FORMAT:UNFORMATTED            ACCESS:STREAM              
 ACTION:READWRITE           

    HEAD INFORMATION WILL BE WRITTEN TO:
      UNIT NUMBER: 1016
      FILE NAME: mumodel_7-2b.hds

 OPENED mumodel_7-2b.hds
 FILE TYPE:DATA(BINARY)   UNIT 1016   STATUS:REPLACE             
 FORMAT:UNFORMATTED            ACCESS:STREAM              
 ACTION:READWRITE           

 END OF OC OPTIONS

start timestep kper="1" kstp="1" mode="normal"


 BEGIN READING OUTPUT CONTROL FOR STRESS PERIOD 1
      ALL TIME STEPS WILL BE SAVED
      ALL TIME STEPS WILL BE PRINTED
      ALL TIME STEPS WILL BE SAVED

 END READING OUTPUT CONTROL FOR STRESS PERIOD 1


 PROCESSING STORAGE PERIOD DATA
 END PROCESSING STORAGE PERIOD DATA


 STRESS PERIOD 1 IS STEADY-STATE

 --------------------------------------------------------------------
  WEL NO.    LAYER    ROW     COL     STRESS RATE         IFACE      
 --------------------------------------------------------------------
     1         1       5       5     0.00000000       0.00000000     
     2         1      11       5     0.00000000       0.00000000     
     3         1       5       5     0.00000000       0.00000000     
 --------------------------------------------------------------------



                 RECHARGE =  0.5000000E-03
 ---------------------------------------------------
  CHD NO.    LAYER    ROW     COL         HEAD      
 ---------------------------------------------------
     1         1       1       1     1000.00000     
     2         1       1       2     1000.00000     
     3         1       1       3     1000.00000     
     4         1       1       4     1000.00000     
     5         1       1       5     1000.00000     
     6         1       1       6     1000.00000     
     7         1       1       7     1000.00000     
     8         1       1       8     1000.00000     
     9         1       1       9     1000.00000     
     10        1      21       1     1000.00000     
     11        1      21       2     1000.00000     
     12        1      21       3     1000.00000     
     13        1      21       4     1000.00000     
     14        1      21       5     1000.00000     
     15        1      21       6     1000.00000     
     16        1      21       7     1000.00000     
     17        1      21       8     1000.00000     
     18        1      21       9     1000.00000     
 ---------------------------------------------------


 UBDSV1 SAVING     FLOW-JA-FACE ON UNIT   1015 AT TIME STEP      1, STRESS PERIOD      1
 UBDSV06 SAVING              WEL IN MODEL MUMODEL          PACKAGE MUMODEL         CONNECTED TO MODEL MUMODEL          PACKAGE WEL-1            ON UNIT   1015 AT TIME STEP      1, STRESS PERIOD      1
 UBDSV06 SAVING             RCHA IN MODEL MUMODEL          PACKAGE MUMODEL         CONNECTED TO MODEL MUMODEL          PACKAGE RCH-1            ON UNIT   1015 AT TIME STEP      1, STRESS PERIOD      1

 WEL PACKAGE (WEL-1) FLOW RATES   PERIOD      1   STEP        1
 -----------------------------------------------
   NUMBER   CELLID                    RATE      
 -----------------------------------------------
     1      (1,5,5)               0.0000000     
     2      (1,11,5)              0.0000000     
     3      (1,5,5)               0.0000000     
 -----------------------------------------------




 CHD PACKAGE (CHD-FROM-IBOUND) FLOW RATES   PERIOD      1   STEP        1
 -----------------------------------------------
   NUMBER   CELLID                    RATE      
 -----------------------------------------------
     1      (1,1,1)              -1187.5006     
     2      (1,1,2)              -1187.4943     
     3      (1,1,3)              -1187.4948     
     4      (1,1,4)              -1187.4971     
     5      (1,1,5)              -1187.4994     
     6      (1,1,6)              -1187.5014     
     7      (1,1,7)              -1187.5033     
     8      (1,1,8)              -1187.5058     
     9      (1,1,9)              -1187.5087     
     10     (1,21,1)             -1187.5086     
     11     (1,21,2)             -1187.5044     
     12     (1,21,3)             -1187.5017     
     13     (1,21,4)             -1187.4996     
     14     (1,21,5)             -1187.4969     
     15     (1,21,6)             -1187.4940     
     16     (1,21,7)             -1187.4924     
     17     (1,21,8)             -1187.4940     
     18     (1,21,9)             -1187.5044     
 -----------------------------------------------




 HEAD WILL BE SAVED ON UNIT 1016 AT END OF TIME STEP    1, STRESS PERIOD    1


  VOLUME BUDGET FOR ENTIRE MODEL AT END OF TIME STEP    1, STRESS PERIOD   1
  ---------------------------------------------------------------------------------------------------

     CUMULATIVE VOLUME      L**3       RATES FOR THIS TIME STEP      L**3/T          PACKAGE NAME    
     ------------------                 ------------------------                     ----------------

           IN:                                      IN:
           ---                                      ---
              STO-SS =           0.0000                STO-SS =           0.0000     STORAGE                          
              STO-SY =           0.0000                STO-SY =           0.0000     STORAGE                          
                 WEL =           0.0000                   WEL =           0.0000     WEL-1                            
                RCHA =       21375.0000                  RCHA =       21375.0000     RCH-1                            
                 CHD =           0.0000                   CHD =           0.0000     CHD-FROM-IBOUND                  

            TOTAL IN =       21375.0000              TOTAL IN =       21375.0000

          OUT:                                     OUT:
          ----                                     ----
              STO-SS =           0.0000                STO-SS =           0.0000     STORAGE                          
              STO-SY =           0.0000                STO-SY =           0.0000     STORAGE                          
                 WEL =           0.0000                   WEL =           0.0000     WEL-1                            
                RCHA =           0.0000                  RCHA =           0.0000     RCH-1                            
                 CHD =       21375.0015                   CHD =       21375.0015     CHD-FROM-IBOUND                  

           TOTAL OUT =       21375.0015             TOTAL OUT =       21375.0015

            IN - OUT =      -1.4845E-03              IN - OUT =      -1.4845E-03

 PERCENT DISCREPANCY =          -0.00     PERCENT DISCREPANCY =          -0.00




         TIME SUMMARY AT END OF TIME STEP    1 IN STRESS PERIOD    1
                    SECONDS     MINUTES      HOURS       DAYS        YEARS
                    -----------------------------------------------------------
   TIME STEP LENGTH  86400.      1440.0      24.000      1.0000     2.73785E-03
 STRESS PERIOD TIME  86400.      1440.0      24.000      1.0000     2.73785E-03
         TOTAL TIME  86400.      1440.0      24.000      1.0000     2.73785E-03


end timestep


start timestep kper="2" kstp="1" mode="normal"


 END OF FILE DETECTED IN OUTPUT CONTROL.
 CURRENT OUTPUT CONTROL SETTINGS WILL BE 
 REPEATED UNTIL THE END OF THE SIMULATION.

 OUTPUT CONTROL FOR STRESS PERIOD 2 IS REPEATED USING SETTINGS FROM A PREVIOUS STRESS PERIOD.


 PROCESSING STORAGE PERIOD DATA
 END PROCESSING STORAGE PERIOD DATA


 STRESS PERIOD 2 IS TRANSIENT


 REUSING WELS FROM LAST STRESS PERIOD

                 RECHARGE =  0.1000000E-02

 REUSING CHDS FROM LAST STRESS PERIOD
 UBDSV1 SAVING     FLOW-JA-FACE ON UNIT   1015 AT TIME STEP      1, STRESS PERIOD      2
 UBDSV06 SAVING              WEL IN MODEL MUMODEL          PACKAGE MUMODEL         CONNECTED TO MODEL MUMODEL          PACKAGE WEL-1            ON UNIT   1015 AT TIME STEP      1, STRESS PERIOD      2
 UBDSV06 SAVING             RCHA IN MODEL MUMODEL          PACKAGE MUMODEL         CONNECTED TO MODEL MUMODEL          PACKAGE RCH-1            ON UNIT   1015 AT TIME STEP      1, STRESS PERIOD      2

 WEL PACKAGE (WEL-1) FLOW RATES   PERIOD      2   STEP        1
 -----------------------------------------------
   NUMBER   CELLID                    RATE      
 -----------------------------------------------
     1      (1,5,5)               0.0000000     
     2      (1,11,5)              0.0000000     
     3      (1,5,5)               0.0000000     
 -----------------------------------------------




 CHD PACKAGE (CHD-FROM-IBOUND) FLOW RATES   PERIOD      2   STEP        1
 -----------------------------------------------
   NUMBER   CELLID                    RATE      
 -----------------------------------------------
     1      (1,1,1)              -1187.9351     
     2      (1,1,2)              -1187.9288     
     3      (1,1,3)              -1187.9292     
     4      (1,1,4)              -1187.9315     
     5      (1,1,5)              -1187.9338     
     6      (1,1,6)              -1187.9357     
     7      (1,1,7)              -1187.9376     
     8      (1,1,8)              -1187.9400     
     9      (1,1,9)              -1187.9430     
     10     (1,21,1)             -1187.9429     
     11     (1,21,2)             -1187.9386     
     12     (1,21,3)             -1187.9360     
     13     (1,21,4)             -1187.9338     
     14     (1,21,5)             -1187.9312     
     15     (1,21,6)             -1187.9284     
     16     (1,21,7)             -1187.9269     
     17     (1,21,8)             -1187.9286     
     18     (1,21,9)             -1187.9390     
 -----------------------------------------------




 HEAD WILL BE SAVED ON UNIT 1016 AT END OF TIME STEP    1, STRESS PERIOD    2


  VOLUME BUDGET FOR ENTIRE MODEL AT END OF TIME STEP    1, STRESS PERIOD   2
  ---------------------------------------------------------------------------------------------------

     CUMULATIVE VOLUME      L**3       RATES FOR THIS TIME STEP      L**3/T          PACKAGE NAME    
     ------------------                 ------------------------                     ----------------

           IN:                                      IN:
           ---                                      ---
              STO-SS =           0.0000                STO-SS =           0.0000     STORAGE                          
              STO-SY =           0.0000                STO-SY =           0.0000     STORAGE                          
                 WEL =           0.0000                   WEL =           0.0000     WEL-1                            
                RCHA =      101697.6370                  RCHA =       42750.0000     RCH-1                            
                 CHD =           0.0000                   CHD =           0.0000     CHD-FROM-IBOUND                  

            TOTAL IN =      101697.6370              TOTAL IN =       42750.0000

          OUT:                                     OUT:
          ----                                     ----
              STO-SS =       38531.6846                STO-SS =       20507.6623     STORAGE                          
              STO-SY =        1615.2471                STO-SY =         859.6806     STORAGE                          
                 WEL =           0.0000                   WEL =           0.0000     WEL-1                            
                RCHA =           0.0000                  RCHA =           0.0000     RCH-1                            
                 CHD =       61551.0130                   CHD =       21382.8200     CHD-FROM-IBOUND                  

           TOTAL OUT =      101697.9447             TOTAL OUT =       42750.1630

            IN - OUT =          -0.3077              IN - OUT =          -0.1630

 PERCENT DISCREPANCY =          -0.00     PERCENT DISCREPANCY =          -0.00




         TIME SUMMARY AT END OF TIME STEP    1 IN STRESS PERIOD    2
                    SECONDS     MINUTES      HOURS       DAYS        YEARS
                    -----------------------------------------------------------
   TIME STEP LENGTH 1.62336E+05  2705.6      45.093      1.8789     5.14413E-03
 STRESS PERIOD TIME 1.62336E+05  2705.6      45.093      1.8789     5.14413E-03
         TOTAL TIME 2.48736E+05  4145.6      69.093      2.8789     7.88198E-03


end timestep


start timestep kper="2" kstp="2" mode="normal"

 UBDSV1 SAVING     FLOW-JA-FACE ON UNIT   1015 AT TIME STEP      2, STRESS PERIOD      2
 UBDSV06 SAVING              WEL IN MODEL MUMODEL          PACKAGE MUMODEL         CONNECTED TO MODEL MUMODEL          PACKAGE WEL-1            ON UNIT   1015 AT TIME STEP      2, STRESS PERIOD      2
 UBDSV06 SAVING             RCHA IN MODEL MUMODEL          PACKAGE MUMODEL         CONNECTED TO MODEL MUMODEL          PACKAGE RCH-1            ON UNIT   1015 AT TIME STEP      2, STRESS PERIOD      2

 WEL PACKAGE (WEL-1) FLOW RATES   PERIOD      2   STEP        2
 -----------------------------------------------
   NUMBER   CELLID                    RATE      
 -----------------------------------------------
     1      (1,5,5)               0.0000000     
     2      (1,11,5)              0.0000000     
     3      (1,5,5)               0.0000000     
 -----------------------------------------------




 CHD PACKAGE (CHD-FROM-IBOUND) FLOW RATES   PERIOD      2   STEP        2
 -----------------------------------------------
   NUMBER   CELLID                    RATE      
 -----------------------------------------------
     1      (1,1,1)              -1188.4657     
     2      (1,1,2)              -1188.4594     
     3      (1,1,3)              -1188.4598     
     4      (1,1,4)              -1188.4620     
     5      (1,1,5)              -1188.4643     
     6      (1,1,6)              -1188.4663     
     7      (1,1,7)              -1188.4681     
     8      (1,1,8)              -1188.4705     
     9      (1,1,9)              -1188.4735     
     10     (1,21,1)             -1188.4733     
     11     (1,21,2)             -1188.4692     
     12     (1,21,3)             -1188.4665     
     13     (1,21,4)             -1188.4644     
     14     (1,21,5)             -1188.4617     
     15     (1,21,6)             -1188.4590     
     16     (1,21,7)             -1188.4575     
     17     (1,21,8)             -1188.4593     
     18     (1,21,9)             -1188.4695     
 -----------------------------------------------




 HEAD WILL BE SAVED ON UNIT 1016 AT END OF TIME STEP    2, STRESS PERIOD    2


  VOLUME BUDGET FOR ENTIRE MODEL AT END OF TIME STEP    2, STRESS PERIOD   2
  ---------------------------------------------------------------------------------------------------

     CUMULATIVE VOLUME      L**3       RATES FOR THIS TIME STEP      L**3/T          PACKAGE NAME    
     ------------------                 ------------------------                     ----------------

           IN:                                      IN:
           ---                                      ---
              STO-SS =           0.0000                STO-SS =           0.0000     STORAGE                          
              STO-SY =           0.0000                STO-SY =           0.0000     STORAGE                          
                 WEL =           0.0000                   WEL =           0.0000     WEL-1                            
                RCHA =      198084.8015                  RCHA =       42750.0000     RCH-1                            
                 CHD =           0.0000                   CHD =           0.0000     CHD-FROM-IBOUND                  

            TOTAL IN =      198084.8015              TOTAL IN =       42750.0000

          OUT:                                     OUT:
          ----                                     ----
              STO-SS =       84749.2491                STO-SS =       20498.5892     STORAGE                          
              STO-SY =        3552.5418                STO-SY =         859.2363     STORAGE                          
                 WEL =           0.0000                   WEL =           0.0000     WEL-1                            
                RCHA =           0.0000                  RCHA =           0.0000     RCH-1                            
                 CHD =      109783.7587                   CHD =       21392.3699     CHD-FROM-IBOUND                  

           TOTAL OUT =      198085.5496             TOTAL OUT =       42750.1953

            IN - OUT =          -0.7481              IN - OUT =          -0.1953

 PERCENT DISCREPANCY =          -0.00     PERCENT DISCREPANCY =          -0.00




         TIME SUMMARY AT END OF TIME STEP    2 IN STRESS PERIOD    2
                    SECONDS     MINUTES      HOURS       DAYS        YEARS
                    -----------------------------------------------------------
   TIME STEP LENGTH 1.94804E+05  3246.7      54.112      2.2547     6.17295E-03
 STRESS PERIOD TIME 3.57140E+05  5952.3      99.206      4.1336     1.13171E-02
         TOTAL TIME 4.43540E+05  7392.3      123.21      5.1336     1.40549E-02


end timestep


start timestep kper="2" kstp="3" mode="normal"

 UBDSV1 SAVING     FLOW-JA-FACE ON UNIT   1015 AT TIME STEP      3, STRESS PERIOD      2
 UBDSV06 SAVING              WEL IN MODEL MUMODEL          PACKAGE MUMODEL         CONNECTED TO MODEL MUMODEL          PACKAGE WEL-1            ON UNIT   1015 AT TIME STEP      3, STRESS PERIOD      2
 UBDSV06 SAVING             RCHA IN MODEL MUMODEL          PACKAGE MUMODEL         CONNECTED TO MODEL MUMODEL          PACKAGE RCH-1            ON UNIT   1015 AT TIME STEP      3, STRESS PERIOD      2

 WEL PACKAGE (WEL-1) FLOW RATES   PERIOD      2   STEP        3
 -----------------------------------------------
   NUMBER   CELLID                    RATE      
 -----------------------------------------------
     1      (1,5,5)               0.0000000     
     2      (1,11,5)              0.0000000     
     3      (1,5,5)               0.0000000     
 -----------------------------------------------




 CHD PACKAGE (CHD-FROM-IBOUND) FLOW RATES   PERIOD      2   STEP        3
 -----------------------------------------------
   NUMBER   CELLID                    RATE      
 -----------------------------------------------
     1      (1,1,1)              -1189.0991     
     2      (1,1,2)              -1189.0929     
     3      (1,1,3)              -1189.0933     
     4      (1,1,4)              -1189.0954     
     5      (1,1,5)              -1189.0977     
     6      (1,1,6)              -1189.0997     
     7      (1,1,7)              -1189.1015     
     8      (1,1,8)              -1189.1039     
     9      (1,1,9)              -1189.1069     
     10     (1,21,1)             -1189.1067     
     11     (1,21,2)             -1189.1026     
     12     (1,21,3)             -1189.0999     
     13     (1,21,4)             -1189.0978     
     14     (1,21,5)             -1189.0952     
     15     (1,21,6)             -1189.0925     
     16     (1,21,7)             -1189.0910     
     17     (1,21,8)             -1189.0928     
     18     (1,21,9)             -1189.1030     
 -----------------------------------------------




 HEAD WILL BE SAVED ON UNIT 1016 AT END OF TIME STEP    3, STRESS PERIOD    2


  VOLUME BUDGET FOR ENTIRE MODEL AT END OF TIME STEP    3, STRESS PERIOD   2
  ---------------------------------------------------------------------------------------------------

     CUMULATIVE VOLUME      L**3       RATES FOR THIS TIME STEP      L**3/T          PACKAGE NAME    
     ------------------                 ------------------------                     ----------------

           IN:                                      IN:
           ---                                      ---
              STO-SS =           0.0000                STO-SS =           0.0000     STORAGE                          
              STO-SY =           0.0000                STO-SY =           0.0000     STORAGE                          
                 WEL =           0.0000                   WEL =           0.0000     WEL-1                            
                RCHA =      313749.3989                  RCHA =       42750.0000     RCH-1                            
                 CHD =           0.0000                   CHD =           0.0000     CHD-FROM-IBOUND                  

            TOTAL IN =      313749.3989              TOTAL IN =       42750.0000

          OUT:                                     OUT:
          ----                                     ----
              STO-SS =      140181.0176                STO-SS =       20487.7565     STORAGE                          
              STO-SY =        5875.8601                STO-SY =         858.7058     STORAGE                          
                 WEL =           0.0000                   WEL =           0.0000     WEL-1                            
                RCHA =           0.0000                  RCHA =           0.0000     RCH-1                            
                 CHD =      167693.9026                   CHD =       21403.7718     CHD-FROM-IBOUND                  

           TOTAL OUT =      313750.7803             TOTAL OUT =       42750.2341

            IN - OUT =          -1.3815              IN - OUT =          -0.2341

 PERCENT DISCREPANCY =          -0.00     PERCENT DISCREPANCY =          -0.00




         TIME SUMMARY AT END OF TIME STEP    3 IN STRESS PERIOD    2
                    SECONDS     MINUTES      HOURS       DAYS        YEARS
                    -----------------------------------------------------------
   TIME STEP LENGTH 2.33764E+05  3896.1      64.935      2.7056     7.40754E-03
 STRESS PERIOD TIME 5.90904E+05  9848.4      164.14      6.8392     1.87246E-02
         TOTAL TIME 6.77304E+05  11288.      188.14      7.8392     2.14625E-02


end timestep


start timestep kper="2" kstp="4" mode="normal"

 UBDSV1 SAVING     FLOW-JA-FACE ON UNIT   1015 AT TIME STEP      4, STRESS PERIOD      2
 UBDSV06 SAVING              WEL IN MODEL MUMODEL          PACKAGE MUMODEL         CONNECTED TO MODEL MUMODEL          PACKAGE WEL-1            ON UNIT   1015 AT TIME STEP      4, STRESS PERIOD      2
 UBDSV06 SAVING             RCHA IN MODEL MUMODEL          PACKAGE MUMODEL         CONNECTED TO MODEL MUMODEL          PACKAGE RCH-1            ON UNIT   1015 AT TIME STEP      4, STRESS PERIOD      2

 WEL PACKAGE (WEL-1) FLOW RATES   PERIOD      2   STEP        4
 -----------------------------------------------
   NUMBER   CELLID                    RATE      
 -----------------------------------------------
     1      (1,5,5)               0.0000000     
     2      (1,11,5)              0.0000000     
     3      (1,5,5)               0.0000000     
 -----------------------------------------------




 CHD PACKAGE (CHD-FROM-IBOUND) FLOW RATES   PERIOD      2   STEP        4
 -----------------------------------------------
   NUMBER   CELLID                    RATE      
 -----------------------------------------------
     1      (1,1,1)              -1189.8546     
     2      (1,1,2)              -1189.8485     
     3      (1,1,3)              -1189.8488     
     4      (1,1,4)              -1189.8510     
     5      (1,1,5)              -1189.8533     
     6      (1,1,6)              -1189.8552     
     7      (1,1,7)              -1189.8571     
     8      (1,1,8)              -1189.8595     
     9      (1,1,9)              -1189.8624     
     10     (1,21,1)             -1189.8622     
     11     (1,21,2)             -1189.8581     
     12     (1,21,3)             -1189.8555     
     13     (1,21,4)             -1189.8534     
     14     (1,21,5)             -1189.8507     
     15     (1,21,6)             -1189.8481     
     16     (1,21,7)             -1189.8466     
     17     (1,21,8)             -1189.8485     
     18     (1,21,9)             -1189.8585     
 -----------------------------------------------




 HEAD WILL BE SAVED ON UNIT 1016 AT END OF TIME STEP    4, STRESS PERIOD    2


  VOLUME BUDGET FOR ENTIRE MODEL AT END OF TIME STEP    4, STRESS PERIOD   2
  ---------------------------------------------------------------------------------------------------

     CUMULATIVE VOLUME      L**3       RATES FOR THIS TIME STEP      L**3/T          PACKAGE NAME    
     ------------------                 ------------------------                     ----------------

           IN:                                      IN:
           ---                                      ---
              STO-SS =           0.0000                STO-SS =           0.0000     STORAGE                          
              STO-SY =           0.0000                STO-SY =           0.0000     STORAGE                          
                 WEL =           0.0000                   WEL =           0.0000     WEL-1                            
                RCHA =      452546.9157                  RCHA =       42750.0000     RCH-1                            
                 CHD =           0.0000                   CHD =           0.0000     CHD-FROM-IBOUND                  

            TOTAL IN =      452546.9157              TOTAL IN =       42750.0000

          OUT:                                     OUT:
          ----                                     ----
              STO-SS =      206657.1891                STO-SS =       20474.8356     STORAGE                          
              STO-SY =        8661.7880                STO-SY =         858.0731     STORAGE                          
                 WEL =           0.0000                   WEL =           0.0000     WEL-1                            
                RCHA =           0.0000                  RCHA =           0.0000     RCH-1                            
                 CHD =      237230.2305                   CHD =       21417.3718     CHD-FROM-IBOUND                  

           TOTAL OUT =      452549.2077             TOTAL OUT =       42750.2805

            IN - OUT =          -2.2920              IN - OUT =          -0.2805

 PERCENT DISCREPANCY =          -0.00     PERCENT DISCREPANCY =          -0.00




         TIME SUMMARY AT END OF TIME STEP    4 IN STRESS PERIOD    2
                    SECONDS     MINUTES      HOURS       DAYS        YEARS
                    -----------------------------------------------------------
   TIME STEP LENGTH 2.80517E+05  4675.3      77.921      3.2467     8.88905E-03
 STRESS PERIOD TIME 8.71421E+05  14524.      242.06      10.086     2.76137E-02
         TOTAL TIME 9.57821E+05  15964.      266.06      11.086     3.03515E-02


end timestep


start timestep kper="2" kstp="5" mode="normal"

 UBDSV1 SAVING     FLOW-JA-FACE ON UNIT   1015 AT TIME STEP      5, STRESS PERIOD      2
 UBDSV06 SAVING              WEL IN MODEL MUMODEL          PACKAGE MUMODEL         CONNECTED TO MODEL MUMODEL          PACKAGE WEL-1            ON UNIT   1015 AT TIME STEP      5, STRESS PERIOD      2
 UBDSV06 SAVING             RCHA IN MODEL MUMODEL          PACKAGE MUMODEL         CONNECTED TO MODEL MUMODEL          PACKAGE RCH-1            ON UNIT   1015 AT TIME STEP      5, STRESS PERIOD      2

 WEL PACKAGE (WEL-1) FLOW RATES   PERIOD      2   STEP        5
 -----------------------------------------------
   NUMBER   CELLID                    RATE      
 -----------------------------------------------
     1      (1,5,5)               0.0000000     
     2      (1,11,5)              0.0000000     
     3      (1,5,5)               0.0000000     
 -----------------------------------------------




 CHD PACKAGE (CHD-FROM-IBOUND) FLOW RATES   PERIOD      2   STEP        5
 -----------------------------------------------
   NUMBER   CELLID                    RATE      
 -----------------------------------------------
     1      (1,1,1)              -1190.7548     
     2      (1,1,2)              -1190.7487     
     3      (1,1,3)              -1190.7490     
     4      (1,1,4)              -1190.7512     
     5      (1,1,5)              -1190.7534     
     6      (1,1,6)              -1190.7554     
     7      (1,1,7)              -1190.7572     
     8      (1,1,8)              -1190.7596     
     9      (1,1,9)              -1190.7624     
     10     (1,21,1)             -1190.7622     
     11     (1,21,2)             -1190.7582     
     12     (1,21,3)             -1190.7556     
     13     (1,21,4)             -1190.7535     
     14     (1,21,5)             -1190.7509     
     15     (1,21,6)             -1190.7483     
     16     (1,21,7)             -1190.7469     
     17     (1,21,8)             -1190.7488     
     18     (1,21,9)             -1190.7587     
 -----------------------------------------------




 HEAD WILL BE SAVED ON UNIT 1016 AT END OF TIME STEP    5, STRESS PERIOD    2


  VOLUME BUDGET FOR ENTIRE MODEL AT END OF TIME STEP    5, STRESS PERIOD   2
  ---------------------------------------------------------------------------------------------------

     CUMULATIVE VOLUME      L**3       RATES FOR THIS TIME STEP      L**3/T          PACKAGE NAME    
     ------------------                 ------------------------                     ----------------

           IN:                                      IN:
           ---                                      ---
              STO-SS =           0.0000                STO-SS =           0.0000     STORAGE                          
              STO-SY =           0.0000                STO-SY =           0.0000     STORAGE                          
                 WEL =           0.0000                   WEL =           0.0000     WEL-1                            
                RCHA =      619103.9358                  RCHA =       42750.0000     RCH-1                            
                 CHD =           0.0000                   CHD =           0.0000     CHD-FROM-IBOUND                  

            TOTAL IN =      619103.9358              TOTAL IN =       42750.0000

          OUT:                                     OUT:
          ----                                     ----
              STO-SS =      286368.6191                STO-SS =       20459.4416     STORAGE                          
              STO-SY =       12001.9654                STO-SY =         857.3195     STORAGE                          
                 WEL =           0.0000                   WEL =           0.0000     WEL-1                            
                RCHA =           0.0000                  RCHA =           0.0000     RCH-1                            
                 CHD =      320736.9520                   CHD =       21433.5748     CHD-FROM-IBOUND                  

           TOTAL OUT =      619107.5365             TOTAL OUT =       42750.3359

            IN - OUT =          -3.6007              IN - OUT =          -0.3359

 PERCENT DISCREPANCY =          -0.00     PERCENT DISCREPANCY =          -0.00




         TIME SUMMARY AT END OF TIME STEP    5 IN STRESS PERIOD    2
                    SECONDS     MINUTES      HOURS       DAYS        YEARS
                    -----------------------------------------------------------
   TIME STEP LENGTH 3.36621E+05  5610.3      93.506      3.8961     1.06669E-02
 STRESS PERIOD TIME 1.20804E+06  20134.      335.57      13.982     3.82805E-02
         TOTAL TIME 1.29444E+06  21574.      359.57      14.982     4.10184E-02


end timestep


start timestep kper="2" kstp="6" mode="normal"

 UBDSV1 SAVING     FLOW-JA-FACE ON UNIT   1015 AT TIME STEP      6, STRESS PERIOD      2
 UBDSV06 SAVING              WEL IN MODEL MUMODEL          PACKAGE MUMODEL         CONNECTED TO MODEL MUMODEL          PACKAGE WEL-1            ON UNIT   1015 AT TIME STEP      6, STRESS PERIOD      2
 UBDSV06 SAVING             RCHA IN MODEL MUMODEL          PACKAGE MUMODEL         CONNECTED TO MODEL MUMODEL          PACKAGE RCH-1            ON UNIT   1015 AT TIME STEP      6, STRESS PERIOD      2

 WEL PACKAGE (WEL-1) FLOW RATES   PERIOD      2   STEP        6
 -----------------------------------------------
   NUMBER   CELLID                    RATE      
 -----------------------------------------------
     1      (1,5,5)               0.0000000     
     2      (1,11,5)              0.0000000     
     3      (1,5,5)               0.0000000     
 -----------------------------------------------




 CHD PACKAGE (CHD-FROM-IBOUND) FLOW RATES   PERIOD      2   STEP        6
 -----------------------------------------------
   NUMBER   CELLID                    RATE      
 -----------------------------------------------
     1      (1,1,1)              -1191.8538     
     2      (1,1,2)              -1191.8479     
     3      (1,1,3)              -1191.8481     
     4      (1,1,4)              -1191.8502     
     5      (1,1,5)              -1191.8525     
     6      (1,1,6)              -1191.8544     
     7      (1,1,7)              -1191.8562     
     8      (1,1,8)              -1191.8586     
     9      (1,1,9)              -1191.8614     
     10     (1,21,1)             -1191.8611     
     11     (1,21,2)             -1191.8572     
     12     (1,21,3)             -1191.8546     
     13     (1,21,4)             -1191.8525     
     14     (1,21,5)             -1191.8500     
     15     (1,21,6)             -1191.8474     
     16     (1,21,7)             -1191.8461     
     17     (1,21,8)             -1191.8480     
     18     (1,21,9)             -1191.8577     
 -----------------------------------------------




 HEAD WILL BE SAVED ON UNIT 1016 AT END OF TIME STEP    6, STRESS PERIOD    2


  VOLUME BUDGET FOR ENTIRE MODEL AT END OF TIME STEP    6, STRESS PERIOD   2
  ---------------------------------------------------------------------------------------------------

     CUMULATIVE VOLUME      L**3       RATES FOR THIS TIME STEP      L**3/T          PACKAGE NAME    
     ------------------                 ------------------------                     ----------------

           IN:                                      IN:
           ---                                      ---
              STO-SS =           0.0000                STO-SS =           0.0000     STORAGE                          
              STO-SY =           0.0000                STO-SY =           0.0000     STORAGE                          
                 WEL =           0.0000                   WEL =           0.0000     WEL-1                            
                RCHA =      818972.3601                  RCHA =       42750.0000     RCH-1                            
                 CHD =           0.0000                   CHD =           0.0000     CHD-FROM-IBOUND                  

            TOTAL IN =      818972.3601              TOTAL IN =       42750.0000

          OUT:                                     OUT:
          ----                                     ----
              STO-SS =      381932.6264                STO-SS =       20440.2538     STORAGE                          
              STO-SY =       16005.8254                STO-SY =         856.3885     STORAGE                          
                 WEL =           0.0000                   WEL =           0.0000     WEL-1                            
                RCHA =           0.0000                  RCHA =           0.0000     RCH-1                            
                 CHD =      421037.5092                   CHD =       21453.3578     CHD-FROM-IBOUND                  

           TOTAL OUT =      818975.9610             TOTAL OUT =       42750.0001

            IN - OUT =          -3.6010              IN - OUT =      -6.1227E-05

 PERCENT DISCREPANCY =          -0.00     PERCENT DISCREPANCY =          -0.00




         TIME SUMMARY AT END OF TIME STEP    6 IN STRESS PERIOD    2
                    SECONDS     MINUTES      HOURS       DAYS        YEARS
                    -----------------------------------------------------------
   TIME STEP LENGTH 4.03945E+05  6732.4      112.21      4.6753     1.28002E-02
 STRESS PERIOD TIME 1.61199E+06  26866.      447.77      18.657     5.10808E-02
         TOTAL TIME 1.69839E+06  28306.      471.77      19.657     5.38186E-02


end timestep


start timestep kper="2" kstp="7" mode="normal"

 UBDSV1 SAVING     FLOW-JA-FACE ON UNIT   1015 AT TIME STEP      7, STRESS PERIOD      2
 UBDSV06 SAVING              WEL IN MODEL MUMODEL          PACKAGE MUMODEL         CONNECTED TO MODEL MUMODEL          PACKAGE WEL-1            ON UNIT   1015 AT TIME STEP      7, STRESS PERIOD      2
 UBDSV06 SAVING             RCHA IN MODEL MUMODEL          PACKAGE MUMODEL         CONNECTED TO MODEL MUMODEL          PACKAGE RCH-1            ON UNIT   1015 AT TIME STEP      7, STRESS PERIOD      2

 WEL PACKAGE (WEL-1) FLOW RATES   PERIOD      2   STEP        7
 -----------------------------------------------
   NUMBER   CELLID                    RATE      
 -----------------------------------------------
     1      (1,5,5)               0.0000000     
     2      (1,11,5)              0.0000000     
     3      (1,5,5)               0.0000000     
 -----------------------------------------------




 CHD PACKAGE (CHD-FROM-IBOUND) FLOW RATES   PERIOD      2   STEP        7
 -----------------------------------------------
   NUMBER   CELLID                    RATE      
 -----------------------------------------------
     1      (1,1,1)              -1193.1315     
     2      (1,1,2)              -1193.1257     
     3      (1,1,3)              -1193.1259     
     4      (1,1,4)              -1193.1280     
     5      (1,1,5)              -1193.1302     
     6      (1,1,6)              -1193.1321     
     7      (1,1,7)              -1193.1339     
     8      (1,1,8)              -1193.1362     
     9      (1,1,9)              -1193.1391     
     10     (1,21,1)             -1193.1387     
     11     (1,21,2)             -1193.1348     
     12     (1,21,3)             -1193.1323     
     13     (1,21,4)             -1193.1303     
     14     (1,21,5)             -1193.1278     
     15     (1,21,6)             -1193.1252     
     16     (1,21,7)             -1193.1240     
     17     (1,21,8)             -1193.1260     
     18     (1,21,9)             -1193.1354     
 -----------------------------------------------




 HEAD WILL BE SAVED ON UNIT 1016 AT END OF TIME STEP    7, STRESS PERIOD    2


  VOLUME BUDGET FOR ENTIRE MODEL AT END OF TIME STEP    7, STRESS PERIOD   2
  ---------------------------------------------------------------------------------------------------

     CUMULATIVE VOLUME      L**3       RATES FOR THIS TIME STEP      L**3/T          PACKAGE NAME    
     ------------------                 ------------------------                     ----------------

           IN:                                      IN:
           ---                                      ---
              STO-SS =           0.0000                STO-SS =           0.0000     STORAGE                          
              STO-SY =           0.0000                STO-SY =           0.0000     STORAGE                          
                 WEL =           0.0000                   WEL =           0.0000     WEL-1                            
                RCHA =     1058814.4691                  RCHA =       42750.0000     RCH-1                            
                 CHD =           0.0000                   CHD =           0.0000     CHD-FROM-IBOUND                  

            TOTAL IN =     1058814.4691              TOTAL IN =       42750.0000

          OUT:                                     OUT:
          ----                                     ----
              STO-SS =      496486.4121                STO-SS =       20418.3259     STORAGE                          
              STO-SY =       20804.4464                STO-SY =         855.3171     STORAGE                          
                 WEL =           0.0000                   WEL =           0.0000     WEL-1                            
                RCHA =           0.0000                  RCHA =           0.0000     RCH-1                            
                 CHD =      541527.2122                   CHD =       21476.3572     CHD-FROM-IBOUND                  

           TOTAL OUT =     1058818.0707             TOTAL OUT =       42750.0001

            IN - OUT =          -3.6015              IN - OUT =      -1.0287E-04

 PERCENT DISCREPANCY =          -0.00     PERCENT DISCREPANCY =          -0.00




         TIME SUMMARY AT END OF TIME STEP    7 IN STRESS PERIOD    2
                    SECONDS     MINUTES      HOURS       DAYS        YEARS
                    -----------------------------------------------------------
   TIME STEP LENGTH 4.84734E+05  8078.9      134.65      5.6103     1.53603E-02
 STRESS PERIOD TIME 2.09672E+06  34945.      582.42      24.268     6.64410E-02
         TOTAL TIME 2.18312E+06  36385.      606.42      25.268     6.91789E-02


end timestep


start timestep kper="2" kstp="8" mode="normal"

 UBDSV1 SAVING     FLOW-JA-FACE ON UNIT   1015 AT TIME STEP      8, STRESS PERIOD      2
 UBDSV06 SAVING              WEL IN MODEL MUMODEL          PACKAGE MUMODEL         CONNECTED TO MODEL MUMODEL          PACKAGE WEL-1            ON UNIT   1015 AT TIME STEP      8, STRESS PERIOD      2
 UBDSV06 SAVING             RCHA IN MODEL MUMODEL          PACKAGE MUMODEL         CONNECTED TO MODEL MUMODEL          PACKAGE RCH-1            ON UNIT   1015 AT TIME STEP      8, STRESS PERIOD      2

 WEL PACKAGE (WEL-1) FLOW RATES   PERIOD      2   STEP        8
 -----------------------------------------------
   NUMBER   CELLID                    RATE      
 -----------------------------------------------
     1      (1,5,5)               0.0000000     
     2      (1,11,5)              0.0000000     
     3      (1,5,5)               0.0000000     
 -----------------------------------------------




 CHD PACKAGE (CHD-FROM-IBOUND) FLOW RATES   PERIOD      2   STEP        8
 -----------------------------------------------
   NUMBER   CELLID                    RATE      
 -----------------------------------------------
     1      (1,1,1)              -1194.6465     
     2      (1,1,2)              -1194.6409     
     3      (1,1,3)              -1194.6410     
     4      (1,1,4)              -1194.6430     
     5      (1,1,5)              -1194.6452     
     6      (1,1,6)              -1194.6470     
     7      (1,1,7)              -1194.6488     
     8      (1,1,8)              -1194.6511     
     9      (1,1,9)              -1194.6539     
     10     (1,21,1)             -1194.6536     
     11     (1,21,2)             -1194.6497     
     12     (1,21,3)             -1194.6472     
     13     (1,21,4)             -1194.6452     
     14     (1,21,5)             -1194.6428     
     15     (1,21,6)             -1194.6403     
     16     (1,21,7)             -1194.6391     
     17     (1,21,8)             -1194.6412     
     18     (1,21,9)             -1194.6504     
 -----------------------------------------------




 HEAD WILL BE SAVED ON UNIT 1016 AT END OF TIME STEP    8, STRESS PERIOD    2


  VOLUME BUDGET FOR ENTIRE MODEL AT END OF TIME STEP    8, STRESS PERIOD   2
  ---------------------------------------------------------------------------------------------------

     CUMULATIVE VOLUME      L**3       RATES FOR THIS TIME STEP      L**3/T          PACKAGE NAME    
     ------------------                 ------------------------                     ----------------

           IN:                                      IN:
           ---                                      ---
              STO-SS =           0.0000                STO-SS =           0.0000     STORAGE                          
              STO-SY =           0.0000                STO-SY =           0.0000     STORAGE                          
                 WEL =           0.0000                   WEL =           0.0000     WEL-1                            
                RCHA =     1346625.0000                  RCHA =       42750.0000     RCH-1                            
                 CHD =           0.0000                   CHD =           0.0000     CHD-FROM-IBOUND                  

            TOTAL IN =     1346625.0000              TOTAL IN =       42750.0000

          OUT:                                     OUT:
          ----                                     ----
              STO-SS =      633775.9134                STO-SS =       20392.3260     STORAGE                          
              STO-SY =       26554.2413                STO-SY =         854.0470     STORAGE                          
                 WEL =           0.0000                   WEL =           0.0000     WEL-1                            
                RCHA =           0.0000                  RCHA =           0.0000     RCH-1                            
                 CHD =      686298.4480                   CHD =       21503.6271     CHD-FROM-IBOUND                  

           TOTAL OUT =     1346628.6027             TOTAL OUT =       42750.0002

            IN - OUT =          -3.6027              IN - OUT =      -1.7209E-04

 PERCENT DISCREPANCY =          -0.00     PERCENT DISCREPANCY =          -0.00




         TIME SUMMARY AT END OF TIME STEP    8 IN STRESS PERIOD    2
                    SECONDS     MINUTES      HOURS       DAYS        YEARS
                    -----------------------------------------------------------
   TIME STEP LENGTH 5.81680E+05  9694.7      161.58      6.7324     1.84323E-02
 STRESS PERIOD TIME 2.67840E+06  44640.      744.00      31.000     8.48734E-02
         TOTAL TIME 2.76480E+06  46080.      768.00      32.000     8.76112E-02


end timestep


start timestep kper="3" kstp="1" mode="normal"


 OUTPUT CONTROL FOR STRESS PERIOD 3 IS REPEATED USING SETTINGS FROM A PREVIOUS STRESS PERIOD.


 STRESS PERIOD 3 IS TRANSIENT


 REUSING WELS FROM LAST STRESS PERIOD

                 RECHARGE =  0.3000000E-02

 REUSING CHDS FROM LAST STRESS PERIOD
 UBDSV1 SAVING     FLOW-JA-FACE ON UNIT   1015 AT TIME STEP      1, STRESS PERIOD      3
 UBDSV06 SAVING              WEL IN MODEL MUMODEL          PACKAGE MUMODEL         CONNECTED TO MODEL MUMODEL          PACKAGE WEL-1            ON UNIT   1015 AT TIME STEP      1, STRESS PERIOD      3
 UBDSV06 SAVING             RCHA IN MODEL MUMODEL          PACKAGE MUMODEL         CONNECTED TO MODEL MUMODEL          PACKAGE RCH-1            ON UNIT   1015 AT TIME STEP      1, STRESS PERIOD      3

 WEL PACKAGE (WEL-1) FLOW RATES   PERIOD      3   STEP        1
 -----------------------------------------------
   NUMBER   CELLID                    RATE      
 -----------------------------------------------
     1      (1,5,5)               0.0000000     
     2      (1,11,5)              0.0000000     
     3      (1,5,5)               0.0000000     
 -----------------------------------------------




 CHD PACKAGE (CHD-FROM-IBOUND) FLOW RATES   PERIOD      3   STEP        1
 -----------------------------------------------
   NUMBER   CELLID                    RATE      
 -----------------------------------------------
     1      (1,1,1)              -1196.6388     
     2      (1,1,2)              -1196.6332     
     3      (1,1,3)              -1196.6333     
     4      (1,1,4)              -1196.6353     
     5      (1,1,5)              -1196.6375     
     6      (1,1,6)              -1196.6394     
     7      (1,1,7)              -1196.6411     
     8      (1,1,8)              -1196.6434     
     9      (1,1,9)              -1196.6462     
     10     (1,21,1)             -1196.6458     
     11     (1,21,2)             -1196.6420     
     12     (1,21,3)             -1196.6395     
     13     (1,21,4)             -1196.6375     
     14     (1,21,5)             -1196.6351     
     15     (1,21,6)             -1196.6327     
     16     (1,21,7)             -1196.6315     
     17     (1,21,8)             -1196.6336     
     18     (1,21,9)             -1196.6427     
 -----------------------------------------------




 HEAD WILL BE SAVED ON UNIT 1016 AT END OF TIME STEP    1, STRESS PERIOD    3


  VOLUME BUDGET FOR ENTIRE MODEL AT END OF TIME STEP    1, STRESS PERIOD   3
  ---------------------------------------------------------------------------------------------------

     CUMULATIVE VOLUME      L**3       RATES FOR THIS TIME STEP      L**3/T          PACKAGE NAME    
     ------------------                 ------------------------                     ----------------

           IN:                                      IN:
           ---                                      ---
              STO-SS =           0.0000                STO-SS =           0.0000     STORAGE                          
              STO-SY =           0.0000                STO-SY =           0.0000     STORAGE                          
                 WEL =           0.0000                   WEL =           0.0000     WEL-1                            
                RCHA =     1564273.4359                  RCHA =      128250.0000     RCH-1                            
                 CHD =           0.0000                   CHD =           0.0000     CHD-FROM-IBOUND                  

            TOTAL IN =     1564273.4359              TOTAL IN =      128250.0000

          OUT:                                     OUT:
          ----                                     ----
              STO-SS =      807587.4580                STO-SS =      102418.9791     STORAGE                          
              STO-SY =       33837.2453                STO-SY =        4291.5322     STORAGE                          
                 WEL =           0.0000                   WEL =           0.0000     WEL-1                            
                RCHA =           0.0000                  RCHA =           0.0000     RCH-1                            
                 CHD =      722852.3353                   CHD =       21539.4887     CHD-FROM-IBOUND                  

           TOTAL OUT =     1564277.0386             TOTAL OUT =      128250.0000

            IN - OUT =          -3.6027              IN - OUT =      -1.4125E-05

 PERCENT DISCREPANCY =          -0.00     PERCENT DISCREPANCY =          -0.00




         TIME SUMMARY AT END OF TIME STEP    1 IN STRESS PERIOD    3
                    SECONDS     MINUTES      HOURS       DAYS        YEARS
                    -----------------------------------------------------------
   TIME STEP LENGTH 1.46626E+05  2443.8      40.730      1.6971     4.64631E-03
 STRESS PERIOD TIME 1.46626E+05  2443.8      40.730      1.6971     4.64631E-03
         TOTAL TIME 2.91143E+06  48524.      808.73      33.697     9.22575E-02


end timestep


start timestep kper="3" kstp="2" mode="normal"

 UBDSV1 SAVING     FLOW-JA-FACE ON UNIT   1015 AT TIME STEP      2, STRESS PERIOD      3
 UBDSV06 SAVING              WEL IN MODEL MUMODEL          PACKAGE MUMODEL         CONNECTED TO MODEL MUMODEL          PACKAGE WEL-1            ON UNIT   1015 AT TIME STEP      2, STRESS PERIOD      3
 UBDSV06 SAVING             RCHA IN MODEL MUMODEL          PACKAGE MUMODEL         CONNECTED TO MODEL MUMODEL          PACKAGE RCH-1            ON UNIT   1015 AT TIME STEP      2, STRESS PERIOD      3

 WEL PACKAGE (WEL-1) FLOW RATES   PERIOD      3   STEP        2
 -----------------------------------------------
   NUMBER   CELLID                    RATE      
 -----------------------------------------------
     1      (1,5,5)               0.0000000     
     2      (1,11,5)              0.0000000     
     3      (1,5,5)               0.0000000     
 -----------------------------------------------




 CHD PACKAGE (CHD-FROM-IBOUND) FLOW RATES   PERIOD      3   STEP        2
 -----------------------------------------------
   NUMBER   CELLID                    RATE      
 -----------------------------------------------
     1      (1,1,1)              -1199.0205     
     2      (1,1,2)              -1199.0149     
     3      (1,1,3)              -1199.0150     
     4      (1,1,4)              -1199.0170     
     5      (1,1,5)              -1199.0192     
     6      (1,1,6)              -1199.0210     
     7      (1,1,7)              -1199.0228     
     8      (1,1,8)              -1199.0251     
     9      (1,1,9)              -1199.0279     
     10     (1,21,1)             -1199.0275     
     11     (1,21,2)             -1199.0237     
     12     (1,21,3)             -1199.0212     
     13     (1,21,4)             -1199.0192     
     14     (1,21,5)             -1199.0168     
     15     (1,21,6)             -1199.0144     
     16     (1,21,7)             -1199.0132     
     17     (1,21,8)             -1199.0154     
     18     (1,21,9)             -1199.0244     
 -----------------------------------------------




 HEAD WILL BE SAVED ON UNIT 1016 AT END OF TIME STEP    2, STRESS PERIOD    3


  VOLUME BUDGET FOR ENTIRE MODEL AT END OF TIME STEP    2, STRESS PERIOD   3
  ---------------------------------------------------------------------------------------------------

     CUMULATIVE VOLUME      L**3       RATES FOR THIS TIME STEP      L**3/T          PACKAGE NAME    
     ------------------                 ------------------------                     ----------------

           IN:                                      IN:
           ---                                      ---
              STO-SS =           0.0000                STO-SS =           0.0000     STORAGE                          
              STO-SY =           0.0000                STO-SY =           0.0000     STORAGE                          
                 WEL =           0.0000                   WEL =           0.0000     WEL-1                            
                RCHA =     1825451.5589                  RCHA =      128250.0000     RCH-1                            
                 CHD =           0.0000                   CHD =           0.0000     CHD-FROM-IBOUND                  

            TOTAL IN =     1825451.5589              TOTAL IN =      128250.0000

          OUT:                                     OUT:
          ----                                     ----
              STO-SS =     1016078.6067                STO-SS =      102378.3673     STORAGE                          
              STO-SY =       42572.2501                STO-SY =        4289.2734     STORAGE                          
                 WEL =           0.0000                   WEL =           0.0000     WEL-1                            
                RCHA =           0.0000                  RCHA =           0.0000     RCH-1                            
                 CHD =      766804.3049                   CHD =       21582.3594     CHD-FROM-IBOUND                  

           TOTAL OUT =     1825455.1617             TOTAL OUT =      128250.0000

            IN - OUT =          -3.6028              IN - OUT =      -2.9331E-05

 PERCENT DISCREPANCY =          -0.00     PERCENT DISCREPANCY =          -0.00




         TIME SUMMARY AT END OF TIME STEP    2 IN STRESS PERIOD    3
                    SECONDS     MINUTES      HOURS       DAYS        YEARS
                    -----------------------------------------------------------
   TIME STEP LENGTH 1.75952E+05  2932.5      48.875      2.0365     5.57557E-03
 STRESS PERIOD TIME 3.22578E+05  5376.3      89.605      3.7335     1.02219E-02
         TOTAL TIME 3.08738E+06  51456.      857.60      35.734     9.78331E-02


end timestep


start timestep kper="3" kstp="3" mode="normal"

 UBDSV1 SAVING     FLOW-JA-FACE ON UNIT   1015 AT TIME STEP      3, STRESS PERIOD      3
 UBDSV06 SAVING              WEL IN MODEL MUMODEL          PACKAGE MUMODEL         CONNECTED TO MODEL MUMODEL          PACKAGE WEL-1            ON UNIT   1015 AT TIME STEP      3, STRESS PERIOD      3
 UBDSV06 SAVING             RCHA IN MODEL MUMODEL          PACKAGE MUMODEL         CONNECTED TO MODEL MUMODEL          PACKAGE RCH-1            ON UNIT   1015 AT TIME STEP      3, STRESS PERIOD      3

 WEL PACKAGE (WEL-1) FLOW RATES   PERIOD      3   STEP        3
 -----------------------------------------------
   NUMBER   CELLID                    RATE      
 -----------------------------------------------
     1      (1,5,5)               0.0000000     
     2      (1,11,5)              0.0000000     
     3      (1,5,5)               0.0000000     
 -----------------------------------------------




 CHD PACKAGE (CHD-FROM-IBOUND) FLOW RATES   PERIOD      3   STEP        3
 -----------------------------------------------
   NUMBER   CELLID                    RATE      
 -----------------------------------------------
     1      (1,1,1)              -1201.8656     
     2      (1,1,2)              -1201.8601     
     3      (1,1,3)              -1201.8602     
     4      (1,1,4)              -1201.8621     
     5      (1,1,5)              -1201.8643     
     6      (1,1,6)              -1201.8661     
     7      (1,1,7)              -1201.8679     
     8      (1,1,8)              -1201.8702     
     9      (1,1,9)              -1201.8729     
     10     (1,21,1)             -1201.8725     
     11     (1,21,2)             -1201.8688     
     12     (1,21,3)             -1201.8663     
     13     (1,21,4)             -1201.8643     
     14     (1,21,5)             -1201.8619     
     15     (1,21,6)             -1201.8595     
     16     (1,21,7)             -1201.8584     
     17     (1,21,8)             -1201.8605     
     18     (1,21,9)             -1201.8695     
 -----------------------------------------------




 HEAD WILL BE SAVED ON UNIT 1016 AT END OF TIME STEP    3, STRESS PERIOD    3


  VOLUME BUDGET FOR ENTIRE MODEL AT END OF TIME STEP    3, STRESS PERIOD   3
  ---------------------------------------------------------------------------------------------------

     CUMULATIVE VOLUME      L**3       RATES FOR THIS TIME STEP      L**3/T          PACKAGE NAME    
     ------------------                 ------------------------                     ----------------

           IN:                                      IN:
           ---                                      ---
              STO-SS =           0.0000                STO-SS =           0.0000     STORAGE                          
              STO-SY =           0.0000                STO-SY =           0.0000     STORAGE                          
                 WEL =           0.0000                   WEL =           0.0000     WEL-1                            
                RCHA =     2138865.3066                  RCHA =      128250.0000     RCH-1                            
                 CHD =           0.0000                   CHD =           0.0000     CHD-FROM-IBOUND                  

            TOTAL IN =     2138865.3066              TOTAL IN =      128250.0000

          OUT:                                     OUT:
          ----                                     ----
              STO-SS =     1266149.4304                STO-SS =      102329.8543     STORAGE                          
              STO-SY =       53047.6605                STO-SY =        4286.5745     STORAGE                          
                 WEL =           0.0000                   WEL =           0.0000     WEL-1                            
                RCHA =           0.0000                  RCHA =           0.0000     RCH-1                            
                 CHD =      819671.8186                   CHD =       21633.5712     CHD-FROM-IBOUND                  

           TOTAL OUT =     2138868.9095             TOTAL OUT =      128250.0000

            IN - OUT =          -3.6029              IN - OUT =      -4.5534E-05

 PERCENT DISCREPANCY =          -0.00     PERCENT DISCREPANCY =          -0.00




         TIME SUMMARY AT END OF TIME STEP    3 IN STRESS PERIOD    3
                    SECONDS     MINUTES      HOURS       DAYS        YEARS
                    -----------------------------------------------------------
   TIME STEP LENGTH 2.11142E+05  3519.0      58.651      2.4438     6.69068E-03
 STRESS PERIOD TIME 5.33720E+05  8895.3      148.26      6.1773     1.69126E-02
         TOTAL TIME 3.29852E+06  54975.      916.26      38.177     0.10452    


end timestep


start timestep kper="3" kstp="4" mode="normal"

 UBDSV1 SAVING     FLOW-JA-FACE ON UNIT   1015 AT TIME STEP      4, STRESS PERIOD      3
 UBDSV06 SAVING              WEL IN MODEL MUMODEL          PACKAGE MUMODEL         CONNECTED TO MODEL MUMODEL          PACKAGE WEL-1            ON UNIT   1015 AT TIME STEP      4, STRESS PERIOD      3
 UBDSV06 SAVING             RCHA IN MODEL MUMODEL          PACKAGE MUMODEL         CONNECTED TO MODEL MUMODEL          PACKAGE RCH-1            ON UNIT   1015 AT TIME STEP      4, STRESS PERIOD      3

 WEL PACKAGE (WEL-1) FLOW RATES   PERIOD      3   STEP        4
 -----------------------------------------------
   NUMBER   CELLID                    RATE      
 -----------------------------------------------
     1      (1,5,5)               0.0000000     
     2      (1,11,5)              0.0000000     
     3      (1,5,5)               0.0000000     
 -----------------------------------------------




 CHD PACKAGE (CHD-FROM-IBOUND) FLOW RATES   PERIOD      3   STEP        4
 -----------------------------------------------
   NUMBER   CELLID                    RATE      
 -----------------------------------------------
     1      (1,1,1)              -1205.2613     
     2      (1,1,2)              -1205.2559     
     3      (1,1,3)              -1205.2559     
     4      (1,1,4)              -1205.2578     
     5      (1,1,5)              -1205.2600     
     6      (1,1,6)              -1205.2618     
     7      (1,1,7)              -1205.2636     
     8      (1,1,8)              -1205.2659     
     9      (1,1,9)              -1205.2686     
     10     (1,21,1)             -1205.2681     
     11     (1,21,2)             -1205.2644     
     12     (1,21,3)             -1205.2620     
     13     (1,21,4)             -1205.2600     
     14     (1,21,5)             -1205.2576     
     15     (1,21,6)             -1205.2553     
     16     (1,21,7)             -1205.2542     
     17     (1,21,8)             -1205.2563     
     18     (1,21,9)             -1205.2652     
 -----------------------------------------------




 HEAD WILL BE SAVED ON UNIT 1016 AT END OF TIME STEP    4, STRESS PERIOD    3


  VOLUME BUDGET FOR ENTIRE MODEL AT END OF TIME STEP    4, STRESS PERIOD   3
  ---------------------------------------------------------------------------------------------------

     CUMULATIVE VOLUME      L**3       RATES FOR THIS TIME STEP      L**3/T          PACKAGE NAME    
     ------------------                 ------------------------                     ----------------

           IN:                                      IN:
           ---                                      ---
              STO-SS =           0.0000                STO-SS =           0.0000     STORAGE                          
              STO-SY =           0.0000                STO-SY =           0.0000     STORAGE                          
                 WEL =           0.0000                   WEL =           0.0000     WEL-1                            
                RCHA =     2514961.8037                  RCHA =      128250.0000     RCH-1                            
                 CHD =           0.0000                   CHD =           0.0000     CHD-FROM-IBOUND                  

            TOTAL IN =     2514961.8037              TOTAL IN =      128250.0000

          OUT:                                     OUT:
          ----                                     ----
              STO-SS =     1566064.6234                STO-SS =      102271.9536     STORAGE                          
              STO-SY =       65608.7047                STO-SY =        4283.3526     STORAGE                          
                 WEL =           0.0000                   WEL =           0.0000     WEL-1                            
                RCHA =           0.0000                  RCHA =           0.0000     RCH-1                            
                 CHD =      883292.0788                   CHD =       21694.6939     CHD-FROM-IBOUND                  

           TOTAL OUT =     2514965.4069             TOTAL OUT =      128250.0001

            IN - OUT =          -3.6031              IN - OUT =      -7.5761E-05

 PERCENT DISCREPANCY =          -0.00     PERCENT DISCREPANCY =          -0.00




         TIME SUMMARY AT END OF TIME STEP    4 IN STRESS PERIOD    3
                    SECONDS     MINUTES      HOURS       DAYS        YEARS
                    -----------------------------------------------------------
   TIME STEP LENGTH 2.53370E+05  4222.8      70.381      2.9325     8.02882E-03
 STRESS PERIOD TIME 7.87090E+05  13118.      218.64      9.1098     2.49414E-02
         TOTAL TIME 3.55189E+06  59198.      986.64      41.110     0.11255    


end timestep


start timestep kper="3" kstp="5" mode="normal"

 UBDSV1 SAVING     FLOW-JA-FACE ON UNIT   1015 AT TIME STEP      5, STRESS PERIOD      3
 UBDSV06 SAVING              WEL IN MODEL MUMODEL          PACKAGE MUMODEL         CONNECTED TO MODEL MUMODEL          PACKAGE WEL-1            ON UNIT   1015 AT TIME STEP      5, STRESS PERIOD      3
 UBDSV06 SAVING             RCHA IN MODEL MUMODEL          PACKAGE MUMODEL         CONNECTED TO MODEL MUMODEL          PACKAGE RCH-1            ON UNIT   1015 AT TIME STEP      5, STRESS PERIOD      3

 WEL PACKAGE (WEL-1) FLOW RATES   PERIOD      3   STEP        5
 -----------------------------------------------
   NUMBER   CELLID                    RATE      
 -----------------------------------------------
     1      (1,5,5)               0.0000000     
     2      (1,11,5)              0.0000000     
     3      (1,5,5)               0.0000000     
 -----------------------------------------------




 CHD PACKAGE (CHD-FROM-IBOUND) FLOW RATES   PERIOD      3   STEP        5
 -----------------------------------------------
   NUMBER   CELLID                    RATE      
 -----------------------------------------------
     1      (1,1,1)              -1209.3099     
     2      (1,1,2)              -1209.3046     
     3      (1,1,3)              -1209.3046     
     4      (1,1,4)              -1209.3065     
     5      (1,1,5)              -1209.3086     
     6      (1,1,6)              -1209.3105     
     7      (1,1,7)              -1209.3122     
     8      (1,1,8)              -1209.3145     
     9      (1,1,9)              -1209.3172     
     10     (1,21,1)             -1209.3167     
     11     (1,21,2)             -1209.3130     
     12     (1,21,3)             -1209.3106     
     13     (1,21,4)             -1209.3087     
     14     (1,21,5)             -1209.3063     
     15     (1,21,6)             -1209.3040     
     16     (1,21,7)             -1209.3029     
     17     (1,21,8)             -1209.3051     
     18     (1,21,9)             -1209.3138     
 -----------------------------------------------




 HEAD WILL BE SAVED ON UNIT 1016 AT END OF TIME STEP    5, STRESS PERIOD    3


  VOLUME BUDGET FOR ENTIRE MODEL AT END OF TIME STEP    5, STRESS PERIOD   3
  ---------------------------------------------------------------------------------------------------

     CUMULATIVE VOLUME      L**3       RATES FOR THIS TIME STEP      L**3/T          PACKAGE NAME    
     ------------------                 ------------------------                     ----------------

           IN:                                      IN:
           ---                                      ---
              STO-SS =           0.0000                STO-SS =           0.0000     STORAGE                          
              STO-SY =           0.0000                STO-SY =           0.0000     STORAGE                          
                 WEL =           0.0000                   WEL =           0.0000     WEL-1                            
                RCHA =     2966277.6004                  RCHA =      128250.0000     RCH-1                            
                 CHD =           0.0000                   CHD =           0.0000     CHD-FROM-IBOUND                  

            TOTAL IN =     2966277.6004              TOTAL IN =      128250.0000

          OUT:                                     OUT:
          ----                                     ----
              STO-SS =     1925719.9247                STO-SS =      102202.9203     STORAGE                          
              STO-SY =       80668.4360                STO-SY =        4279.5102     STORAGE                          
                 WEL =           0.0000                   WEL =           0.0000     WEL-1                            
                RCHA =           0.0000                  RCHA =           0.0000     RCH-1                            
                 CHD =      959892.8433                   CHD =       21767.5697     CHD-FROM-IBOUND                  

           TOTAL OUT =     2966281.2040             TOTAL OUT =      128250.0001

            IN - OUT =          -3.6036              IN - OUT =      -1.3359E-04

 PERCENT DISCREPANCY =          -0.00     PERCENT DISCREPANCY =          -0.00




         TIME SUMMARY AT END OF TIME STEP    5 IN STRESS PERIOD    3
                    SECONDS     MINUTES      HOURS       DAYS        YEARS
                    -----------------------------------------------------------
   TIME STEP LENGTH 3.04044E+05  5067.4      84.457      3.5190     9.63458E-03
 STRESS PERIOD TIME 1.09113E+06  18186.      303.09      12.629     3.45760E-02
         TOTAL TIME 3.85593E+06  64266.      1071.1      44.629     0.12219    


end timestep


start timestep kper="3" kstp="6" mode="normal"

 UBDSV1 SAVING     FLOW-JA-FACE ON UNIT   1015 AT TIME STEP      6, STRESS PERIOD      3
 UBDSV06 SAVING              WEL IN MODEL MUMODEL          PACKAGE MUMODEL         CONNECTED TO MODEL MUMODEL          PACKAGE WEL-1            ON UNIT   1015 AT TIME STEP      6, STRESS PERIOD      3
 UBDSV06 SAVING             RCHA IN MODEL MUMODEL          PACKAGE MUMODEL         CONNECTED TO MODEL MUMODEL          PACKAGE RCH-1            ON UNIT   1015 AT TIME STEP      6, STRESS PERIOD      3

 WEL PACKAGE (WEL-1) FLOW RATES   PERIOD      3   STEP        6
 -----------------------------------------------
   NUMBER   CELLID                    RATE      
 -----------------------------------------------
     1      (1,5,5)               0.0000000     
     2      (1,11,5)              0.0000000     
     3      (1,5,5)               0.0000000     
 -----------------------------------------------




 CHD PACKAGE (CHD-FROM-IBOUND) FLOW RATES   PERIOD      3   STEP        6
 -----------------------------------------------
   NUMBER   CELLID                    RATE      
 -----------------------------------------------
     1      (1,1,1)              -1214.1312     
     2      (1,1,2)              -1214.1259     
     3      (1,1,3)              -1214.1259     
     4      (1,1,4)              -1214.1278     
     5      (1,1,5)              -1214.1299     
     6      (1,1,6)              -1214.1317     
     7      (1,1,7)              -1214.1334     
     8      (1,1,8)              -1214.1357     
     9      (1,1,9)              -1214.1384     
     10     (1,21,1)             -1214.1379     
     11     (1,21,2)             -1214.1342     
     12     (1,21,3)             -1214.1319     
     13     (1,21,4)             -1214.1299     
     14     (1,21,5)             -1214.1276     
     15     (1,21,6)             -1214.1253     
     16     (1,21,7)             -1214.1243     
     17     (1,21,8)             -1214.1265     
     18     (1,21,9)             -1214.1351     
 -----------------------------------------------




 HEAD WILL BE SAVED ON UNIT 1016 AT END OF TIME STEP    6, STRESS PERIOD    3


  VOLUME BUDGET FOR ENTIRE MODEL AT END OF TIME STEP    6, STRESS PERIOD   3
  ---------------------------------------------------------------------------------------------------

     CUMULATIVE VOLUME      L**3       RATES FOR THIS TIME STEP      L**3/T          PACKAGE NAME    
     ------------------                 ------------------------                     ----------------

           IN:                                      IN:
           ---                                      ---
              STO-SS =           0.0000                STO-SS =           0.0000     STORAGE                          
              STO-SY =           0.0000                STO-SY =           0.0000     STORAGE                          
                 WEL =           0.0000                   WEL =           0.0000     WEL-1                            
                RCHA =     3507856.5563                  RCHA =      128250.0000     RCH-1                            
                 CHD =           0.0000                   CHD =           0.0000     CHD-FROM-IBOUND                  

            TOTAL IN =     3507856.5563              TOTAL IN =      128250.0000

          OUT:                                     OUT:
          ----                                     ----
              STO-SS =     2356959.1458                STO-SS =      102120.7148     STORAGE                          
              STO-SY =       98720.7850                STO-SY =        4274.9330     STORAGE                          
                 WEL =           0.0000                   WEL =           0.0000     WEL-1                            
                RCHA =           0.0000                  RCHA =           0.0000     RCH-1                            
                 CHD =     1052180.2301                   CHD =       21854.3524     CHD-FROM-IBOUND                  

           TOTAL OUT =     3507860.1608             TOTAL OUT =      128250.0002

            IN - OUT =          -3.6045              IN - OUT =      -2.2361E-04

 PERCENT DISCREPANCY =          -0.00     PERCENT DISCREPANCY =          -0.00




         TIME SUMMARY AT END OF TIME STEP    6 IN STRESS PERIOD    3
                    SECONDS     MINUTES      HOURS       DAYS        YEARS
                    -----------------------------------------------------------
   TIME STEP LENGTH 3.64853E+05  6080.9      101.35      4.2228     1.15615E-02
 STRESS PERIOD TIME 1.45599E+06  24266.      404.44      16.852     4.61375E-02
         TOTAL TIME 4.22079E+06  70346.      1172.4      48.852     0.13375    


end timestep


start timestep kper="3" kstp="7" mode="normal"

 UBDSV1 SAVING     FLOW-JA-FACE ON UNIT   1015 AT TIME STEP      7, STRESS PERIOD      3
 UBDSV06 SAVING              WEL IN MODEL MUMODEL          PACKAGE MUMODEL         CONNECTED TO MODEL MUMODEL          PACKAGE WEL-1            ON UNIT   1015 AT TIME STEP      7, STRESS PERIOD      3
 UBDSV06 SAVING             RCHA IN MODEL MUMODEL          PACKAGE MUMODEL         CONNECTED TO MODEL MUMODEL          PACKAGE RCH-1            ON UNIT   1015 AT TIME STEP      7, STRESS PERIOD      3

 WEL PACKAGE (WEL-1) FLOW RATES   PERIOD      3   STEP        7
 -----------------------------------------------
   NUMBER   CELLID                    RATE      
 -----------------------------------------------
     1      (1,5,5)               0.0000000     
     2      (1,11,5)              0.0000000     
     3      (1,5,5)               0.0000000     
 -----------------------------------------------




 CHD PACKAGE (CHD-FROM-IBOUND) FLOW RATES   PERIOD      3   STEP        7
 -----------------------------------------------
   NUMBER   CELLID                    RATE      
 -----------------------------------------------
     1      (1,1,1)              -1219.8642     
     2      (1,1,2)              -1219.8590     
     3      (1,1,3)              -1219.8590     
     4      (1,1,4)              -1219.8608     
     5      (1,1,5)              -1219.8629     
     6      (1,1,6)              -1219.8647     
     7      (1,1,7)              -1219.8664     
     8      (1,1,8)              -1219.8687     
     9      (1,1,9)              -1219.8713     
     10     (1,21,1)             -1219.8708     
     11     (1,21,2)             -1219.8672     
     12     (1,21,3)             -1219.8649     
     13     (1,21,4)             -1219.8629     
     14     (1,21,5)             -1219.8606     
     15     (1,21,6)             -1219.8584     
     16     (1,21,7)             -1219.8574     
     17     (1,21,8)             -1219.8597     
     18     (1,21,9)             -1219.8681     
 -----------------------------------------------




 HEAD WILL BE SAVED ON UNIT 1016 AT END OF TIME STEP    7, STRESS PERIOD    3


  VOLUME BUDGET FOR ENTIRE MODEL AT END OF TIME STEP    7, STRESS PERIOD   3
  ---------------------------------------------------------------------------------------------------

     CUMULATIVE VOLUME      L**3       RATES FOR THIS TIME STEP      L**3/T          PACKAGE NAME    
     ------------------                 ------------------------                     ----------------

           IN:                                      IN:
           ---                                      ---
              STO-SS =           0.0000                STO-SS =           0.0000     STORAGE                          
              STO-SY =           0.0000                STO-SY =           0.0000     STORAGE                          
                 WEL =           0.0000                   WEL =           0.0000     WEL-1                            
                RCHA =     4157751.3034                  RCHA =      128250.0000     RCH-1                            
                 CHD =           0.0000                   CHD =           0.0000     CHD-FROM-IBOUND                  

            TOTAL IN =     4157751.3034              TOTAL IN =      128250.0000

          OUT:                                     OUT:
          ----                                     ----
              STO-SS =     2873950.8735                STO-SS =      102022.9651     STORAGE                          
              STO-SY =      120356.0121                STO-SY =        4269.4881     STORAGE                          
                 WEL =           0.0000                   WEL =           0.0000     WEL-1                            
                RCHA =           0.0000                  RCHA =           0.0000     RCH-1                            
                 CHD =     1163448.0243                   CHD =       21957.5472     CHD-FROM-IBOUND                  

           TOTAL OUT =     4157754.9099             TOTAL OUT =      128250.0004

            IN - OUT =          -3.6064              IN - OUT =      -3.7851E-04

 PERCENT DISCREPANCY =          -0.00     PERCENT DISCREPANCY =          -0.00




         TIME SUMMARY AT END OF TIME STEP    7 IN STRESS PERIOD    3
                    SECONDS     MINUTES      HOURS       DAYS        YEARS
                    -----------------------------------------------------------
   TIME STEP LENGTH 4.37824E+05  7297.1      121.62      5.0674     1.38738E-02
 STRESS PERIOD TIME 1.89381E+06  31564.      526.06      21.919     6.00113E-02
         TOTAL TIME 4.65861E+06  77644.      1294.1      53.919     0.14762    


end timestep


start timestep kper="3" kstp="8" mode="normal"

 UBDSV1 SAVING     FLOW-JA-FACE ON UNIT   1015 AT TIME STEP      8, STRESS PERIOD      3
 UBDSV06 SAVING              WEL IN MODEL MUMODEL          PACKAGE MUMODEL         CONNECTED TO MODEL MUMODEL          PACKAGE WEL-1            ON UNIT   1015 AT TIME STEP      8, STRESS PERIOD      3
 UBDSV06 SAVING             RCHA IN MODEL MUMODEL          PACKAGE MUMODEL         CONNECTED TO MODEL MUMODEL          PACKAGE RCH-1            ON UNIT   1015 AT TIME STEP      8, STRESS PERIOD      3

 WEL PACKAGE (WEL-1) FLOW RATES   PERIOD      3   STEP        8
 -----------------------------------------------
   NUMBER   CELLID                    RATE      
 -----------------------------------------------
     1      (1,5,5)               0.0000000     
     2      (1,11,5)              0.0000000     
     3      (1,5,5)               0.0000000     
 -----------------------------------------------




 CHD PACKAGE (CHD-FROM-IBOUND) FLOW RATES   PERIOD      3   STEP        8
 -----------------------------------------------
   NUMBER   CELLID                    RATE      
 -----------------------------------------------
     1      (1,1,1)              -1226.6700     
     2      (1,1,2)              -1226.6649     
     3      (1,1,3)              -1226.6648     
     4      (1,1,4)              -1226.6666     
     5      (1,1,5)              -1226.6687     
     6      (1,1,6)              -1226.6704     
     7      (1,1,7)              -1226.6721     
     8      (1,1,8)              -1226.6744     
     9      (1,1,9)              -1226.6770     
     10     (1,21,1)             -1226.6764     
     11     (1,21,2)             -1226.6729     
     12     (1,21,3)             -1226.6706     
     13     (1,21,4)             -1226.6687     
     14     (1,21,5)             -1226.6664     
     15     (1,21,6)             -1226.6642     
     16     (1,21,7)             -1226.6633     
     17     (1,21,8)             -1226.6656     
     18     (1,21,9)             -1226.6739     
 -----------------------------------------------




 HEAD WILL BE SAVED ON UNIT 1016 AT END OF TIME STEP    8, STRESS PERIOD    3


  VOLUME BUDGET FOR ENTIRE MODEL AT END OF TIME STEP    8, STRESS PERIOD   3
  ---------------------------------------------------------------------------------------------------

     CUMULATIVE VOLUME      L**3       RATES FOR THIS TIME STEP      L**3/T          PACKAGE NAME    
     ------------------                 ------------------------                     ----------------

           IN:                                      IN:
           ---                                      ---
              STO-SS =           0.0000                STO-SS =           0.0000     STORAGE                          
              STO-SY =           0.0000                STO-SY =           0.0000     STORAGE                          
                 WEL =           0.0000                   WEL =           0.0000     WEL-1                            
                RCHA =     4937625.0000                  RCHA =      128250.0000     RCH-1                            
                 CHD =           0.0000                   CHD =           0.0000     CHD-FROM-IBOUND                  

            TOTAL IN =     4937625.0000              TOTAL IN =      128250.0000

          OUT:                                     OUT:
          ----                                     ----
              STO-SS =     3493635.3409                STO-SS =      101906.9284     STORAGE                          
              STO-SY =      146278.9611                STO-SY =        4263.0213     STORAGE                          
                 WEL =           0.0000                   WEL =           0.0000     WEL-1                            
                RCHA =           0.0000                  RCHA =           0.0000     RCH-1                            
                 CHD =     1297714.3083                   CHD =       22080.0509     CHD-FROM-IBOUND                  

           TOTAL OUT =     4937628.6103             TOTAL OUT =      128250.0006

            IN - OUT =          -3.6103              IN - OUT =      -6.4027E-04

 PERCENT DISCREPANCY =          -0.00     PERCENT DISCREPANCY =          -0.00




         TIME SUMMARY AT END OF TIME STEP    8 IN STRESS PERIOD    3
                    SECONDS     MINUTES      HOURS       DAYS        YEARS
                    -----------------------------------------------------------
   TIME STEP LENGTH 5.25389E+05  8756.5      145.94      6.0809     1.66486E-02
 STRESS PERIOD TIME 2.41920E+06  40320.      672.00      28.000     7.66598E-02
         TOTAL TIME 5.18400E+06  86400.      1440.0      60.000     0.16427    


end timestep


start timestep kper="4" kstp="1" mode="normal"


 OUTPUT CONTROL FOR STRESS PERIOD 4 IS REPEATED USING SETTINGS FROM A PREVIOUS STRESS PERIOD.


 STRESS PERIOD 4 IS TRANSIENT


 REUSING WELS FROM LAST STRESS PERIOD

                 RECHARGE =  0.4000000E-02

 REUSING CHDS FROM LAST STRESS PERIOD
 UBDSV1 SAVING     FLOW-JA-FACE ON UNIT   1015 AT TIME STEP      1, STRESS PERIOD      4
 UBDSV06 SAVING              WEL IN MODEL MUMODEL          PACKAGE MUMODEL         CONNECTED TO MODEL MUMODEL          PACKAGE WEL-1            ON UNIT   1015 AT TIME STEP      1, STRESS PERIOD      4
 UBDSV06 SAVING             RCHA IN MODEL MUMODEL          PACKAGE MUMODEL         CONNECTED TO MODEL MUMODEL          PACKAGE RCH-1            ON UNIT   1015 AT TIME STEP      1, STRESS PERIOD      4

 WEL PACKAGE (WEL-1) FLOW RATES   PERIOD      4   STEP        1
 -----------------------------------------------
   NUMBER   CELLID                    RATE      
 -----------------------------------------------
     1      (1,5,5)               0.0000000     
     2      (1,11,5)              0.0000000     
     3      (1,5,5)               0.0000000     
 -----------------------------------------------




 CHD PACKAGE (CHD-FROM-IBOUND) FLOW RATES   PERIOD      4   STEP        1
 -----------------------------------------------
   NUMBER   CELLID                    RATE      
 -----------------------------------------------
     1      (1,1,1)              -1229.6576     
     2      (1,1,2)              -1229.6526     
     3      (1,1,3)              -1229.6524     
     4      (1,1,4)              -1229.6542     
     5      (1,1,5)              -1229.6563     
     6      (1,1,6)              -1229.6581     
     7      (1,1,7)              -1229.6598     
     8      (1,1,8)              -1229.6620     
     9      (1,1,9)              -1229.6646     
     10     (1,21,1)             -1229.6640     
     11     (1,21,2)             -1229.6605     
     12     (1,21,3)             -1229.6582     
     13     (1,21,4)             -1229.6563     
     14     (1,21,5)             -1229.6541     
     15     (1,21,6)             -1229.6519     
     16     (1,21,7)             -1229.6510     
     17     (1,21,8)             -1229.6533     
     18     (1,21,9)             -1229.6615     
 -----------------------------------------------




 HEAD WILL BE SAVED ON UNIT 1016 AT END OF TIME STEP    1, STRESS PERIOD    4


  VOLUME BUDGET FOR ENTIRE MODEL AT END OF TIME STEP    1, STRESS PERIOD   4
  ---------------------------------------------------------------------------------------------------

     CUMULATIVE VOLUME      L**3       RATES FOR THIS TIME STEP      L**3/T          PACKAGE NAME    
     ------------------                 ------------------------                     ----------------

           IN:                                      IN:
           ---                                      ---
              STO-SS =           0.0000                STO-SS =           0.0000     STORAGE                          
              STO-SY =           0.0000                STO-SY =           0.0000     STORAGE                          
                 WEL =           0.0000                   WEL =           0.0000     WEL-1                            
                RCHA =     5258915.5482                  RCHA =      171000.0000     RCH-1                            
                 CHD =           0.0000                   CHD =           0.0000     CHD-FROM-IBOUND                  

            TOTAL IN =     5258915.5482              TOTAL IN =      171000.0000

          OUT:                                     OUT:
          ----                                     ----
              STO-SS =     3762107.8393                STO-SS =      142888.7263     STORAGE                          
              STO-SY =      157509.9359                STO-SY =        5977.4454     STORAGE                          
                 WEL =           0.0000                   WEL =           0.0000     WEL-1                            
                RCHA =           0.0000                  RCHA =           0.0000     RCH-1                            
                 CHD =     1339301.3834                   CHD =       22133.8283     CHD-FROM-IBOUND                  

           TOTAL OUT =     5258919.1586             TOTAL OUT =      171000.0000

            IN - OUT =          -3.6104              IN - OUT =      -2.0600E-05

 PERCENT DISCREPANCY =          -0.00     PERCENT DISCREPANCY =          -0.00




         TIME SUMMARY AT END OF TIME STEP    1 IN STRESS PERIOD    4
                    SECONDS     MINUTES      HOURS       DAYS        YEARS
                    -----------------------------------------------------------
   TIME STEP LENGTH 1.62336E+05  2705.6      45.093      1.8789     5.14413E-03
 STRESS PERIOD TIME 1.62336E+05  2705.6      45.093      1.8789     5.14413E-03
         TOTAL TIME 5.34634E+06  89106.      1485.1      61.879     0.16942    


end timestep


start timestep kper="4" kstp="2" mode="normal"

 UBDSV1 SAVING     FLOW-JA-FACE ON UNIT   1015 AT TIME STEP      2, STRESS PERIOD      4
 UBDSV06 SAVING              WEL IN MODEL MUMODEL          PACKAGE MUMODEL         CONNECTED TO MODEL MUMODEL          PACKAGE WEL-1            ON UNIT   1015 AT TIME STEP      2, STRESS PERIOD      4
 UBDSV06 SAVING             RCHA IN MODEL MUMODEL          PACKAGE MUMODEL         CONNECTED TO MODEL MUMODEL          PACKAGE RCH-1            ON UNIT   1015 AT TIME STEP      2, STRESS PERIOD      4

 WEL PACKAGE (WEL-1) FLOW RATES   PERIOD      4   STEP        2
 -----------------------------------------------
   NUMBER   CELLID                    RATE      
 -----------------------------------------------
     1      (1,5,5)               0.0000000     
     2      (1,11,5)              0.0000000     
     3      (1,5,5)               0.0000000     
 -----------------------------------------------




 CHD PACKAGE (CHD-FROM-IBOUND) FLOW RATES   PERIOD      4   STEP        2
 -----------------------------------------------
   NUMBER   CELLID                    RATE      
 -----------------------------------------------
     1      (1,1,1)              -1233.2282     
     2      (1,1,2)              -1233.2232     
     3      (1,1,3)              -1233.2230     
     4      (1,1,4)              -1233.2248     
     5      (1,1,5)              -1233.2269     
     6      (1,1,6)              -1233.2286     
     7      (1,1,7)              -1233.2303     
     8      (1,1,8)              -1233.2325     
     9      (1,1,9)              -1233.2352     
     10     (1,21,1)             -1233.2345     
     11     (1,21,2)             -1233.2311     
     12     (1,21,3)             -1233.2288     
     13     (1,21,4)             -1233.2269     
     14     (1,21,5)             -1233.2247     
     15     (1,21,6)             -1233.2225     
     16     (1,21,7)             -1233.2217     
     17     (1,21,8)             -1233.2240     
     18     (1,21,9)             -1233.2321     
 -----------------------------------------------




 HEAD WILL BE SAVED ON UNIT 1016 AT END OF TIME STEP    2, STRESS PERIOD    4


  VOLUME BUDGET FOR ENTIRE MODEL AT END OF TIME STEP    2, STRESS PERIOD   4
  ---------------------------------------------------------------------------------------------------

     CUMULATIVE VOLUME      L**3       RATES FOR THIS TIME STEP      L**3/T          PACKAGE NAME    
     ------------------                 ------------------------                     ----------------

           IN:                                      IN:
           ---                                      ---
              STO-SS =           0.0000                STO-SS =           0.0000     STORAGE                          
              STO-SY =           0.0000                STO-SY =           0.0000     STORAGE                          
                 WEL =           0.0000                   WEL =           0.0000     WEL-1                            
                RCHA =     5644464.2060                  RCHA =      171000.0000     RCH-1                            
                 CHD =           0.0000                   CHD =           0.0000     CHD-FROM-IBOUND                  

            TOTAL IN =     5644464.2060              TOTAL IN =      171000.0000

          OUT:                                     OUT:
          ----                                     ----
              STO-SS =     4084138.0176                STO-SS =      142828.0435     STORAGE                          
              STO-SY =      170979.0164                STO-SY =        5973.8575     STORAGE                          
                 WEL =           0.0000                   WEL =           0.0000     WEL-1                            
                RCHA =           0.0000                  RCHA =           0.0000     RCH-1                            
                 CHD =     1389350.7826                   CHD =       22198.0990     CHD-FROM-IBOUND                  

           TOTAL OUT =     5644467.8165             TOTAL OUT =      171000.0000

            IN - OUT =          -3.6105              IN - OUT =      -4.2544E-05

 PERCENT DISCREPANCY =          -0.00     PERCENT DISCREPANCY =          -0.00




         TIME SUMMARY AT END OF TIME STEP    2 IN STRESS PERIOD    4
                    SECONDS     MINUTES      HOURS       DAYS        YEARS
                    -----------------------------------------------------------
   TIME STEP LENGTH 1.94804E+05  3246.7      54.112      2.2547     6.17295E-03
 STRESS PERIOD TIME 3.57140E+05  5952.3      99.206      4.1336     1.13171E-02
         TOTAL TIME 5.54114E+06  92352.      1539.2      64.134     0.17559    


end timestep


start timestep kper="4" kstp="3" mode="normal"

 UBDSV1 SAVING     FLOW-JA-FACE ON UNIT   1015 AT TIME STEP      3, STRESS PERIOD      4
 UBDSV06 SAVING              WEL IN MODEL MUMODEL          PACKAGE MUMODEL         CONNECTED TO MODEL MUMODEL          PACKAGE WEL-1            ON UNIT   1015 AT TIME STEP      3, STRESS PERIOD      4
 UBDSV06 SAVING             RCHA IN MODEL MUMODEL          PACKAGE MUMODEL         CONNECTED TO MODEL MUMODEL          PACKAGE RCH-1            ON UNIT   1015 AT TIME STEP      3, STRESS PERIOD      4

 WEL PACKAGE (WEL-1) FLOW RATES   PERIOD      4   STEP        3
 -----------------------------------------------
   NUMBER   CELLID                    RATE      
 -----------------------------------------------
     1      (1,5,5)               0.0000000     
     2      (1,11,5)              0.0000000     
     3      (1,5,5)               0.0000000     
 -----------------------------------------------




 CHD PACKAGE (CHD-FROM-IBOUND) FLOW RATES   PERIOD      4   STEP        3
 -----------------------------------------------
   NUMBER   CELLID                    RATE      
 -----------------------------------------------
     1      (1,1,1)              -1237.4921     
     2      (1,1,2)              -1237.4872     
     3      (1,1,3)              -1237.4870     
     4      (1,1,4)              -1237.4888     
     5      (1,1,5)              -1237.4908     
     6      (1,1,6)              -1237.4926     
     7      (1,1,7)              -1237.4943     
     8      (1,1,8)              -1237.4965     
     9      (1,1,9)              -1237.4991     
     10     (1,21,1)             -1237.4984     
     11     (1,21,2)             -1237.4950     
     12     (1,21,3)             -1237.4927     
     13     (1,21,4)             -1237.4909     
     14     (1,21,5)             -1237.4886     
     15     (1,21,6)             -1237.4865     
     16     (1,21,7)             -1237.4857     
     17     (1,21,8)             -1237.4880     
     18     (1,21,9)             -1237.4960     
 -----------------------------------------------




 HEAD WILL BE SAVED ON UNIT 1016 AT END OF TIME STEP    3, STRESS PERIOD    4


  VOLUME BUDGET FOR ENTIRE MODEL AT END OF TIME STEP    3, STRESS PERIOD   4
  ---------------------------------------------------------------------------------------------------

     CUMULATIVE VOLUME      L**3       RATES FOR THIS TIME STEP      L**3/T          PACKAGE NAME    
     ------------------                 ------------------------                     ----------------

           IN:                                      IN:
           ---                                      ---
              STO-SS =           0.0000                STO-SS =           0.0000     STORAGE                          
              STO-SY =           0.0000                STO-SY =           0.0000     STORAGE                          
                 WEL =           0.0000                   WEL =           0.0000     WEL-1                            
                RCHA =     6107122.5954                  RCHA =      171000.0000     RCH-1                            
                 CHD =           0.0000                   CHD =           0.0000     CHD-FROM-IBOUND                  

            TOTAL IN =     6107122.5954              TOTAL IN =      171000.0000

          OUT:                                     OUT:
          ----                                     ----
              STO-SS =     4470378.1687                STO-SS =      142755.5781     STORAGE                          
              STO-SY =      187130.3167                STO-SY =        5969.5715     STORAGE                          
                 WEL =           0.0000                   WEL =           0.0000     WEL-1                            
                RCHA =           0.0000                  RCHA =           0.0000     RCH-1                            
                 CHD =     1449617.7207                   CHD =       22274.8504     CHD-FROM-IBOUND                  

           TOTAL OUT =     6107126.2061             TOTAL OUT =      171000.0001

            IN - OUT =          -3.6107              IN - OUT =      -6.9629E-05

 PERCENT DISCREPANCY =          -0.00     PERCENT DISCREPANCY =          -0.00




         TIME SUMMARY AT END OF TIME STEP    3 IN STRESS PERIOD    4
                    SECONDS     MINUTES      HOURS       DAYS        YEARS
                    -----------------------------------------------------------
   TIME STEP LENGTH 2.33764E+05  3896.1      64.935      2.7056     7.40754E-03
 STRESS PERIOD TIME 5.90904E+05  9848.4      164.14      6.8392     1.87246E-02
         TOTAL TIME 5.77490E+06  96248.      1604.1      66.839     0.18300    


end timestep


start timestep kper="4" kstp="4" mode="normal"

 UBDSV1 SAVING     FLOW-JA-FACE ON UNIT   1015 AT TIME STEP      4, STRESS PERIOD      4
 UBDSV06 SAVING              WEL IN MODEL MUMODEL          PACKAGE MUMODEL         CONNECTED TO MODEL MUMODEL          PACKAGE WEL-1            ON UNIT   1015 AT TIME STEP      4, STRESS PERIOD      4
 UBDSV06 SAVING             RCHA IN MODEL MUMODEL          PACKAGE MUMODEL         CONNECTED TO MODEL MUMODEL          PACKAGE RCH-1            ON UNIT   1015 AT TIME STEP      4, STRESS PERIOD      4

 WEL PACKAGE (WEL-1) FLOW RATES   PERIOD      4   STEP        4
 -----------------------------------------------
   NUMBER   CELLID                    RATE      
 -----------------------------------------------
     1      (1,5,5)               0.0000000     
     2      (1,11,5)              0.0000000     
     3      (1,5,5)               0.0000000     
 -----------------------------------------------




 CHD PACKAGE (CHD-FROM-IBOUND) FLOW RATES   PERIOD      4   STEP        4
 -----------------------------------------------
   NUMBER   CELLID                    RATE      
 -----------------------------------------------
     1      (1,1,1)              -1242.5794     
     2      (1,1,2)              -1242.5745     
     3      (1,1,3)              -1242.5743     
     4      (1,1,4)              -1242.5761     
     5      (1,1,5)              -1242.5781     
     6      (1,1,6)              -1242.5798     
     7      (1,1,7)              -1242.5815     
     8      (1,1,8)              -1242.5837     
     9      (1,1,9)              -1242.5863     
     10     (1,21,1)             -1242.5856     
     11     (1,21,2)             -1242.5822     
     12     (1,21,3)             -1242.5800     
     13     (1,21,4)             -1242.5781     
     14     (1,21,5)             -1242.5759     
     15     (1,21,6)             -1242.5738     
     16     (1,21,7)             -1242.5730     
     17     (1,21,8)             -1242.5754     
     18     (1,21,9)             -1242.5833     
 -----------------------------------------------




 HEAD WILL BE SAVED ON UNIT 1016 AT END OF TIME STEP    4, STRESS PERIOD    4


  VOLUME BUDGET FOR ENTIRE MODEL AT END OF TIME STEP    4, STRESS PERIOD   4
  ---------------------------------------------------------------------------------------------------

     CUMULATIVE VOLUME      L**3       RATES FOR THIS TIME STEP      L**3/T          PACKAGE NAME    
     ------------------                 ------------------------                     ----------------

           IN:                                      IN:
           ---                                      ---
              STO-SS =           0.0000                STO-SS =           0.0000     STORAGE                          
              STO-SY =           0.0000                STO-SY =           0.0000     STORAGE                          
                 WEL =           0.0000                   WEL =           0.0000     WEL-1                            
                RCHA =     6662312.6627                  RCHA =      171000.0000     RCH-1                            
                 CHD =           0.0000                   CHD =           0.0000     CHD-FROM-IBOUND                  

            TOTAL IN =     6662312.6627              TOTAL IN =      171000.0000

          OUT:                                     OUT:
          ----                                     ----
              STO-SS =     4933585.6545                STO-SS =      142669.1232     STORAGE                          
              STO-SY =      206495.2684                STO-SY =        5964.4560     STORAGE                          
                 WEL =           0.0000                   WEL =           0.0000     WEL-1                            
                RCHA =           0.0000                  RCHA =           0.0000     RCH-1                            
                 CHD =     1522235.3508                   CHD =       22366.4209     CHD-FROM-IBOUND                  

           TOTAL OUT =     6662316.2737             TOTAL OUT =      171000.0001

            IN - OUT =          -3.6111              IN - OUT =      -1.2072E-04

 PERCENT DISCREPANCY =          -0.00     PERCENT DISCREPANCY =          -0.00




         TIME SUMMARY AT END OF TIME STEP    4 IN STRESS PERIOD    4
                    SECONDS     MINUTES      HOURS       DAYS        YEARS
                    -----------------------------------------------------------
   TIME STEP LENGTH 2.80517E+05  4675.3      77.921      3.2467     8.88905E-03
 STRESS PERIOD TIME 8.71421E+05  14524.      242.06      10.086     2.76137E-02
         TOTAL TIME 6.05542E+06 1.00924E+05  1682.1      70.086     0.19188    


end timestep


start timestep kper="4" kstp="5" mode="normal"

 UBDSV1 SAVING     FLOW-JA-FACE ON UNIT   1015 AT TIME STEP      5, STRESS PERIOD      4
 UBDSV06 SAVING              WEL IN MODEL MUMODEL          PACKAGE MUMODEL         CONNECTED TO MODEL MUMODEL          PACKAGE WEL-1            ON UNIT   1015 AT TIME STEP      5, STRESS PERIOD      4
 UBDSV06 SAVING             RCHA IN MODEL MUMODEL          PACKAGE MUMODEL         CONNECTED TO MODEL MUMODEL          PACKAGE RCH-1            ON UNIT   1015 AT TIME STEP      5, STRESS PERIOD      4

 WEL PACKAGE (WEL-1) FLOW RATES   PERIOD      4   STEP        5
 -----------------------------------------------
   NUMBER   CELLID                    RATE      
 -----------------------------------------------
     1      (1,5,5)               0.0000000     
     2      (1,11,5)              0.0000000     
     3      (1,5,5)               0.0000000     
 -----------------------------------------------




 CHD PACKAGE (CHD-FROM-IBOUND) FLOW RATES   PERIOD      4   STEP        5
 -----------------------------------------------
   NUMBER   CELLID                    RATE      
 -----------------------------------------------
     1      (1,1,1)              -1248.6422     
     2      (1,1,2)              -1248.6374     
     3      (1,1,3)              -1248.6371     
     4      (1,1,4)              -1248.6389     
     5      (1,1,5)              -1248.6409     
     6      (1,1,6)              -1248.6426     
     7      (1,1,7)              -1248.6443     
     8      (1,1,8)              -1248.6465     
     9      (1,1,9)              -1248.6490     
     10     (1,21,1)             -1248.6483     
     11     (1,21,2)             -1248.6450     
     12     (1,21,3)             -1248.6427     
     13     (1,21,4)             -1248.6409     
     14     (1,21,5)             -1248.6387     
     15     (1,21,6)             -1248.6367     
     16     (1,21,7)             -1248.6359     
     17     (1,21,8)             -1248.6383     
     18     (1,21,9)             -1248.6461     
 -----------------------------------------------




 HEAD WILL BE SAVED ON UNIT 1016 AT END OF TIME STEP    5, STRESS PERIOD    4


  VOLUME BUDGET FOR ENTIRE MODEL AT END OF TIME STEP    5, STRESS PERIOD   4
  ---------------------------------------------------------------------------------------------------

     CUMULATIVE VOLUME      L**3       RATES FOR THIS TIME STEP      L**3/T          PACKAGE NAME    
     ------------------                 ------------------------                     ----------------

           IN:                                      IN:
           ---                                      ---
              STO-SS =           0.0000                STO-SS =           0.0000     STORAGE                          
              STO-SY =           0.0000                STO-SY =           0.0000     STORAGE                          
                 WEL =           0.0000                   WEL =           0.0000     WEL-1                            
                RCHA =     7328540.7434                  RCHA =      171000.0000     RCH-1                            
                 CHD =           0.0000                   CHD =           0.0000     CHD-FROM-IBOUND                  

            TOTAL IN =     7328540.7434              TOTAL IN =      171000.0000

          OUT:                                     OUT:
          ----                                     ----
              STO-SS =     5489033.2216                STO-SS =      142566.0922     STORAGE                          
              STO-SY =      229709.4469                STO-SY =        5958.3567     STORAGE                          
                 WEL =           0.0000                   WEL =           0.0000     WEL-1                            
                RCHA =           0.0000                  RCHA =           0.0000     RCH-1                            
                 CHD =     1609801.6867                   CHD =       22475.5514     CHD-FROM-IBOUND                  

           TOTAL OUT =     7328544.3552             TOTAL OUT =      171000.0002

            IN - OUT =          -3.6118              IN - OUT =      -2.0230E-04

 PERCENT DISCREPANCY =          -0.00     PERCENT DISCREPANCY =          -0.00




         TIME SUMMARY AT END OF TIME STEP    5 IN STRESS PERIOD    4
                    SECONDS     MINUTES      HOURS       DAYS        YEARS
                    -----------------------------------------------------------
   TIME STEP LENGTH 3.36621E+05  5610.3      93.506      3.8961     1.06669E-02
 STRESS PERIOD TIME 1.20804E+06  20134.      335.57      13.982     3.82805E-02
         TOTAL TIME 6.39204E+06 1.06534E+05  1775.6      73.982     0.20255    


end timestep


start timestep kper="4" kstp="6" mode="normal"

 UBDSV1 SAVING     FLOW-JA-FACE ON UNIT   1015 AT TIME STEP      6, STRESS PERIOD      4
 UBDSV06 SAVING              WEL IN MODEL MUMODEL          PACKAGE MUMODEL         CONNECTED TO MODEL MUMODEL          PACKAGE WEL-1            ON UNIT   1015 AT TIME STEP      6, STRESS PERIOD      4
 UBDSV06 SAVING             RCHA IN MODEL MUMODEL          PACKAGE MUMODEL         CONNECTED TO MODEL MUMODEL          PACKAGE RCH-1            ON UNIT   1015 AT TIME STEP      6, STRESS PERIOD      4

 WEL PACKAGE (WEL-1) FLOW RATES   PERIOD      4   STEP        6
 -----------------------------------------------
   NUMBER   CELLID                    RATE      
 -----------------------------------------------
     1      (1,5,5)               0.0000000     
     2      (1,11,5)              0.0000000     
     3      (1,5,5)               0.0000000     
 -----------------------------------------------




 CHD PACKAGE (CHD-FROM-IBOUND) FLOW RATES   PERIOD      4   STEP        6
 -----------------------------------------------
   NUMBER   CELLID                    RATE      
 -----------------------------------------------
     1      (1,1,1)              -1255.8582     
     2      (1,1,2)              -1255.8535     
     3      (1,1,3)              -1255.8532     
     4      (1,1,4)              -1255.8549     
     5      (1,1,5)              -1255.8569     
     6      (1,1,6)              -1255.8586     
     7      (1,1,7)              -1255.8603     
     8      (1,1,8)              -1255.8625     
     9      (1,1,9)              -1255.8650     
     10     (1,21,1)             -1255.8642     
     11     (1,21,2)             -1255.8610     
     12     (1,21,3)             -1255.8587     
     13     (1,21,4)             -1255.8569     
     14     (1,21,5)             -1255.8548     
     15     (1,21,6)             -1255.8528     
     16     (1,21,7)             -1255.8520     
     17     (1,21,8)             -1255.8545     
     18     (1,21,9)             -1255.8621     
 -----------------------------------------------




 HEAD WILL BE SAVED ON UNIT 1016 AT END OF TIME STEP    6, STRESS PERIOD    4


  VOLUME BUDGET FOR ENTIRE MODEL AT END OF TIME STEP    6, STRESS PERIOD   4
  ---------------------------------------------------------------------------------------------------

     CUMULATIVE VOLUME      L**3       RATES FOR THIS TIME STEP      L**3/T          PACKAGE NAME    
     ------------------                 ------------------------                     ----------------

           IN:                                      IN:
           ---                                      ---
              STO-SS =           0.0000                STO-SS =           0.0000     STORAGE                          
              STO-SY =           0.0000                STO-SY =           0.0000     STORAGE                          
                 WEL =           0.0000                   WEL =           0.0000     WEL-1                            
                RCHA =     8128014.4403                  RCHA =      171000.0000     RCH-1                            
                 CHD =           0.0000                   CHD =           0.0000     CHD-FROM-IBOUND                  

            TOTAL IN =     8128014.4403              TOTAL IN =      171000.0000

          OUT:                                     OUT:
          ----                                     ----
              STO-SS =     6154996.9952                STO-SS =      142443.4672     STORAGE                          
              STO-SY =      257532.5018                STO-SY =        5951.0931     STORAGE                          
                 WEL =           0.0000                   WEL =           0.0000     WEL-1                            
                RCHA =           0.0000                  RCHA =           0.0000     RCH-1                            
                 CHD =     1715488.5567                   CHD =       22605.4401     CHD-FROM-IBOUND                  

           TOTAL OUT =     8128018.0537             TOTAL OUT =      171000.0003

            IN - OUT =          -3.6135              IN - OUT =      -3.4614E-04

 PERCENT DISCREPANCY =          -0.00     PERCENT DISCREPANCY =          -0.00




         TIME SUMMARY AT END OF TIME STEP    6 IN STRESS PERIOD    4
                    SECONDS     MINUTES      HOURS       DAYS        YEARS
                    -----------------------------------------------------------
   TIME STEP LENGTH 4.03945E+05  6732.4      112.21      4.6753     1.28002E-02
 STRESS PERIOD TIME 1.61199E+06  26866.      447.77      18.657     5.10808E-02
         TOTAL TIME 6.79599E+06 1.13266E+05  1887.8      78.657     0.21535    


end timestep


start timestep kper="4" kstp="7" mode="normal"

 UBDSV1 SAVING     FLOW-JA-FACE ON UNIT   1015 AT TIME STEP      7, STRESS PERIOD      4
 UBDSV06 SAVING              WEL IN MODEL MUMODEL          PACKAGE MUMODEL         CONNECTED TO MODEL MUMODEL          PACKAGE WEL-1            ON UNIT   1015 AT TIME STEP      7, STRESS PERIOD      4
 UBDSV06 SAVING             RCHA IN MODEL MUMODEL          PACKAGE MUMODEL         CONNECTED TO MODEL MUMODEL          PACKAGE RCH-1            ON UNIT   1015 AT TIME STEP      7, STRESS PERIOD      4

 WEL PACKAGE (WEL-1) FLOW RATES   PERIOD      4   STEP        7
 -----------------------------------------------
   NUMBER   CELLID                    RATE      
 -----------------------------------------------
     1      (1,5,5)               0.0000000     
     2      (1,11,5)              0.0000000     
     3      (1,5,5)               0.0000000     
 -----------------------------------------------




 CHD PACKAGE (CHD-FROM-IBOUND) FLOW RATES   PERIOD      4   STEP        7
 -----------------------------------------------
   NUMBER   CELLID                    RATE      
 -----------------------------------------------
     1      (1,1,1)              -1264.4337     
     2      (1,1,2)              -1264.4291     
     3      (1,1,3)              -1264.4288     
     4      (1,1,4)              -1264.4305     
     5      (1,1,5)              -1264.4324     
     6      (1,1,6)              -1264.4341     
     7      (1,1,7)              -1264.4358     
     8      (1,1,8)              -1264.4379     
     9      (1,1,9)              -1264.4404     
     10     (1,21,1)             -1264.4397     
     11     (1,21,2)             -1264.4365     
     12     (1,21,3)             -1264.4342     
     13     (1,21,4)             -1264.4324     
     14     (1,21,5)             -1264.4303     
     15     (1,21,6)             -1264.4284     
     16     (1,21,7)             -1264.4277     
     17     (1,21,8)             -1264.4301     
     18     (1,21,9)             -1264.4376     
 -----------------------------------------------




 HEAD WILL BE SAVED ON UNIT 1016 AT END OF TIME STEP    7, STRESS PERIOD    4


  VOLUME BUDGET FOR ENTIRE MODEL AT END OF TIME STEP    7, STRESS PERIOD   4
  ---------------------------------------------------------------------------------------------------

     CUMULATIVE VOLUME      L**3       RATES FOR THIS TIME STEP      L**3/T          PACKAGE NAME    
     ------------------                 ------------------------                     ----------------

           IN:                                      IN:
           ---                                      ---
              STO-SS =           0.0000                STO-SS =           0.0000     STORAGE                          
              STO-SY =           0.0000                STO-SY =           0.0000     STORAGE                          
                 WEL =           0.0000                   WEL =           0.0000     WEL-1                            
                RCHA =     9087382.8765                  RCHA =      171000.0000     RCH-1                            
                 CHD =           0.0000                   CHD =           0.0000     CHD-FROM-IBOUND                  

            TOTAL IN =     9087382.8765              TOTAL IN =      171000.0000

          OUT:                                     OUT:
          ----                                     ----
              STO-SS =     6953335.9752                STO-SS =      142297.7455     STORAGE                          
              STO-SY =      290871.7064                STO-SY =        5942.4552     STORAGE                          
                 WEL =           0.0000                   WEL =           0.0000     WEL-1                            
                RCHA =           0.0000                  RCHA =           0.0000     RCH-1                            
                 CHD =     1843178.8116                   CHD =       22759.7998     CHD-FROM-IBOUND                  

           TOTAL OUT =     9087386.4933             TOTAL OUT =      171000.0006

            IN - OUT =          -3.6168              IN - OUT =      -5.8722E-04

 PERCENT DISCREPANCY =          -0.00     PERCENT DISCREPANCY =          -0.00




         TIME SUMMARY AT END OF TIME STEP    7 IN STRESS PERIOD    4
                    SECONDS     MINUTES      HOURS       DAYS        YEARS
                    -----------------------------------------------------------
   TIME STEP LENGTH 4.84734E+05  8078.9      134.65      5.6103     1.53603E-02
 STRESS PERIOD TIME 2.09672E+06  34945.      582.42      24.268     6.64410E-02
         TOTAL TIME 7.28072E+06 1.21345E+05  2022.4      84.268     0.23071    


end timestep


start timestep kper="4" kstp="8" mode="normal"

 UBDSV1 SAVING     FLOW-JA-FACE ON UNIT   1015 AT TIME STEP      8, STRESS PERIOD      4
 UBDSV06 SAVING              WEL IN MODEL MUMODEL          PACKAGE MUMODEL         CONNECTED TO MODEL MUMODEL          PACKAGE WEL-1            ON UNIT   1015 AT TIME STEP      8, STRESS PERIOD      4
 UBDSV06 SAVING             RCHA IN MODEL MUMODEL          PACKAGE MUMODEL         CONNECTED TO MODEL MUMODEL          PACKAGE RCH-1            ON UNIT   1015 AT TIME STEP      8, STRESS PERIOD      4

 WEL PACKAGE (WEL-1) FLOW RATES   PERIOD      4   STEP        8
 -----------------------------------------------
   NUMBER   CELLID                    RATE      
 -----------------------------------------------
     1      (1,5,5)               0.0000000     
     2      (1,11,5)              0.0000000     
     3      (1,5,5)               0.0000000     
 -----------------------------------------------




 CHD PACKAGE (CHD-FROM-IBOUND) FLOW RATES   PERIOD      4   STEP        8
 -----------------------------------------------
   NUMBER   CELLID                    RATE      
 -----------------------------------------------
     1      (1,1,1)              -1274.6067     
     2      (1,1,2)              -1274.6022     
     3      (1,1,3)              -1274.6018     
     4      (1,1,4)              -1274.6035     
     5      (1,1,5)              -1274.6054     
     6      (1,1,6)              -1274.6071     
     7      (1,1,7)              -1274.6087     
     8      (1,1,8)              -1274.6108     
     9      (1,1,9)              -1274.6133     
     10     (1,21,1)             -1274.6125     
     11     (1,21,2)             -1274.6094     
     12     (1,21,3)             -1274.6072     
     13     (1,21,4)             -1274.6054     
     14     (1,21,5)             -1274.6033     
     15     (1,21,6)             -1274.6014     
     16     (1,21,7)             -1274.6008     
     17     (1,21,8)             -1274.6033     
     18     (1,21,9)             -1274.6106     
 -----------------------------------------------




 HEAD WILL BE SAVED ON UNIT 1016 AT END OF TIME STEP    8, STRESS PERIOD    4


  VOLUME BUDGET FOR ENTIRE MODEL AT END OF TIME STEP    8, STRESS PERIOD   4
  ---------------------------------------------------------------------------------------------------

     CUMULATIVE VOLUME      L**3       RATES FOR THIS TIME STEP      L**3/T          PACKAGE NAME    
     ------------------                 ------------------------                     ----------------

           IN:                                      IN:
           ---                                      ---
              STO-SS =           0.0000                STO-SS =           0.0000     STORAGE                          
              STO-SY =           0.0000                STO-SY =           0.0000     STORAGE                          
                 WEL =           0.0000                   WEL =           0.0000     WEL-1                            
                RCHA =    10238625.0000                  RCHA =      171000.0000     RCH-1                            
                 CHD =           0.0000                   CHD =           0.0000     CHD-FROM-IBOUND                  

            TOTAL IN =    10238625.0000              TOTAL IN =      171000.0000

          OUT:                                     OUT:
          ----                                     ----
              STO-SS =     7910178.9998                STO-SS =      142124.8874     STORAGE                          
              STO-SY =      330809.7106                STO-SY =        5932.2002     STORAGE                          
                 WEL =           0.0000                   WEL =           0.0000     WEL-1                            
                RCHA =           0.0000                  RCHA =           0.0000     RCH-1                            
                 CHD =     1997639.9130                   CHD =       22942.9134     CHD-FROM-IBOUND                  

           TOTAL OUT =    10238628.6235             TOTAL OUT =      171000.0010

            IN - OUT =          -3.6235              IN - OUT =      -9.9528E-04

 PERCENT DISCREPANCY =          -0.00     PERCENT DISCREPANCY =          -0.00




         TIME SUMMARY AT END OF TIME STEP    8 IN STRESS PERIOD    4
                    SECONDS     MINUTES      HOURS       DAYS        YEARS
                    -----------------------------------------------------------
   TIME STEP LENGTH 5.81680E+05  9694.7      161.58      6.7324     1.84323E-02
 STRESS PERIOD TIME 2.67840E+06  44640.      744.00      31.000     8.48734E-02
         TOTAL TIME 7.86240E+06 1.31040E+05  2184.0      91.000     0.24914    


end timestep


start timestep kper="5" kstp="1" mode="normal"


 OUTPUT CONTROL FOR STRESS PERIOD 5 IS REPEATED USING SETTINGS FROM A PREVIOUS STRESS PERIOD.


 STRESS PERIOD 5 IS TRANSIENT


 REUSING WELS FROM LAST STRESS PERIOD

                 RECHARGE =  0.3000000E-02

 REUSING CHDS FROM LAST STRESS PERIOD
 UBDSV1 SAVING     FLOW-JA-FACE ON UNIT   1015 AT TIME STEP      1, STRESS PERIOD      5
 UBDSV06 SAVING              WEL IN MODEL MUMODEL          PACKAGE MUMODEL         CONNECTED TO MODEL MUMODEL          PACKAGE WEL-1            ON UNIT   1015 AT TIME STEP      1, STRESS PERIOD      5
 UBDSV06 SAVING             RCHA IN MODEL MUMODEL          PACKAGE MUMODEL         CONNECTED TO MODEL MUMODEL          PACKAGE RCH-1            ON UNIT   1015 AT TIME STEP      1, STRESS PERIOD      5

 WEL PACKAGE (WEL-1) FLOW RATES   PERIOD      5   STEP        1
 -----------------------------------------------
   NUMBER   CELLID                    RATE      
 -----------------------------------------------
     1      (1,5,5)               0.0000000     
     2      (1,11,5)              0.0000000     
     3      (1,5,5)               0.0000000     
 -----------------------------------------------




 CHD PACKAGE (CHD-FROM-IBOUND) FLOW RATES   PERIOD      5   STEP        1
 -----------------------------------------------
   NUMBER   CELLID                    RATE      
 -----------------------------------------------
     1      (1,1,1)              -1276.4826     
     2      (1,1,2)              -1276.4782     
     3      (1,1,3)              -1276.4778     
     4      (1,1,4)              -1276.4794     
     5      (1,1,5)              -1276.4813     
     6      (1,1,6)              -1276.4830     
     7      (1,1,7)              -1276.4847     
     8      (1,1,8)              -1276.4868     
     9      (1,1,9)              -1276.4892     
     10     (1,21,1)             -1276.4884     
     11     (1,21,2)             -1276.4853     
     12     (1,21,3)             -1276.4831     
     13     (1,21,4)             -1276.4813     
     14     (1,21,5)             -1276.4793     
     15     (1,21,6)             -1276.4774     
     16     (1,21,7)             -1276.4768     
     17     (1,21,8)             -1276.4793     
     18     (1,21,9)             -1276.4865     
 -----------------------------------------------




 HEAD WILL BE SAVED ON UNIT 1016 AT END OF TIME STEP    1, STRESS PERIOD    5


  VOLUME BUDGET FOR ENTIRE MODEL AT END OF TIME STEP    1, STRESS PERIOD   5
  ---------------------------------------------------------------------------------------------------

     CUMULATIVE VOLUME      L**3       RATES FOR THIS TIME STEP      L**3/T          PACKAGE NAME    
     ------------------                 ------------------------                     ----------------

           IN:                                      IN:
           ---                                      ---
              STO-SS =           0.0000                STO-SS =           0.0000     STORAGE                          
              STO-SY =           0.0000                STO-SY =           0.0000     STORAGE                          
                 WEL =           0.0000                   WEL =           0.0000     WEL-1                            
                RCHA =    10471819.7527                  RCHA =      128250.0000     RCH-1                            
                 CHD =           0.0000                   CHD =           0.0000     CHD-FROM-IBOUND                  

            TOTAL IN =    10471819.7527              TOTAL IN =      128250.0000

          OUT:                                     OUT:
          ----                                     ----
              STO-SS =     8093932.0688                STO-SS =      101058.5823     STORAGE                          
              STO-SY =      338473.2945                STO-SY =        4214.7374     STORAGE                          
                 WEL =           0.0000                   WEL =           0.0000     WEL-1                            
                RCHA =           0.0000                  RCHA =           0.0000     RCH-1                            
                 CHD =     2039418.0128                   CHD =       22976.6804     CHD-FROM-IBOUND                  

           TOTAL OUT =    10471823.3762             TOTAL OUT =      128250.0000

            IN - OUT =          -3.6235              IN - OUT =      -1.3477E-05

 PERCENT DISCREPANCY =          -0.00     PERCENT DISCREPANCY =          -0.00




         TIME SUMMARY AT END OF TIME STEP    1 IN STRESS PERIOD    5
                    SECONDS     MINUTES      HOURS       DAYS        YEARS
                    -----------------------------------------------------------
   TIME STEP LENGTH 1.57100E+05  2618.3      43.639      1.8183     4.97819E-03
 STRESS PERIOD TIME 1.57100E+05  2618.3      43.639      1.8183     4.97819E-03
         TOTAL TIME 8.01950E+06 1.33658E+05  2227.6      92.818     0.25412    


end timestep


start timestep kper="5" kstp="2" mode="normal"

 UBDSV1 SAVING     FLOW-JA-FACE ON UNIT   1015 AT TIME STEP      2, STRESS PERIOD      5
 UBDSV06 SAVING              WEL IN MODEL MUMODEL          PACKAGE MUMODEL         CONNECTED TO MODEL MUMODEL          PACKAGE WEL-1            ON UNIT   1015 AT TIME STEP      2, STRESS PERIOD      5
 UBDSV06 SAVING             RCHA IN MODEL MUMODEL          PACKAGE MUMODEL         CONNECTED TO MODEL MUMODEL          PACKAGE RCH-1            ON UNIT   1015 AT TIME STEP      2, STRESS PERIOD      5

 WEL PACKAGE (WEL-1) FLOW RATES   PERIOD      5   STEP        2
 -----------------------------------------------
   NUMBER   CELLID                    RATE      
 -----------------------------------------------
     1      (1,5,5)               0.0000000     
     2      (1,11,5)              0.0000000     
     3      (1,5,5)               0.0000000     
 -----------------------------------------------




 CHD PACKAGE (CHD-FROM-IBOUND) FLOW RATES   PERIOD      5   STEP        2
 -----------------------------------------------
   NUMBER   CELLID                    RATE      
 -----------------------------------------------
     1      (1,1,1)              -1278.7258     
     2      (1,1,2)              -1278.7214     
     3      (1,1,3)              -1278.7210     
     4      (1,1,4)              -1278.7226     
     5      (1,1,5)              -1278.7245     
     6      (1,1,6)              -1278.7262     
     7      (1,1,7)              -1278.7278     
     8      (1,1,8)              -1278.7299     
     9      (1,1,9)              -1278.7324     
     10     (1,21,1)             -1278.7315     
     11     (1,21,2)             -1278.7284     
     12     (1,21,3)             -1278.7263     
     13     (1,21,4)             -1278.7245     
     14     (1,21,5)             -1278.7225     
     15     (1,21,6)             -1278.7206     
     16     (1,21,7)             -1278.7200     
     17     (1,21,8)             -1278.7225     
     18     (1,21,9)             -1278.7297     
 -----------------------------------------------




 HEAD WILL BE SAVED ON UNIT 1016 AT END OF TIME STEP    2, STRESS PERIOD    5


  VOLUME BUDGET FOR ENTIRE MODEL AT END OF TIME STEP    2, STRESS PERIOD   5
  ---------------------------------------------------------------------------------------------------

     CUMULATIVE VOLUME      L**3       RATES FOR THIS TIME STEP      L**3/T          PACKAGE NAME    
     ------------------                 ------------------------                     ----------------

           IN:                                      IN:
           ---                                      ---
              STO-SS =           0.0000                STO-SS =           0.0000     STORAGE                          
              STO-SY =           0.0000                STO-SY =           0.0000     STORAGE                          
                 WEL =           0.0000                   WEL =           0.0000     WEL-1                            
                RCHA =    10751653.4560                  RCHA =      128250.0000     RCH-1                            
                 CHD =           0.0000                   CHD =           0.0000     CHD-FROM-IBOUND                  

            TOTAL IN =    10751653.4560              TOTAL IN =      128250.0000

          OUT:                                     OUT:
          ----                                     ----
              STO-SS =     8314352.3153                STO-SS =      101020.3427     STORAGE                          
              STO-SY =      347664.9305                STO-SY =        4212.5995     STORAGE                          
                 WEL =           0.0000                   WEL =           0.0000     WEL-1                            
                RCHA =           0.0000                  RCHA =           0.0000     RCH-1                            
                 CHD =     2089639.8338                   CHD =       23017.0578     CHD-FROM-IBOUND                  

           TOTAL OUT =    10751657.0795             TOTAL OUT =      128250.0000

            IN - OUT =          -3.6235              IN - OUT =      -2.6599E-05

 PERCENT DISCREPANCY =          -0.00     PERCENT DISCREPANCY =          -0.00




         TIME SUMMARY AT END OF TIME STEP    2 IN STRESS PERIOD    5
                    SECONDS     MINUTES      HOURS       DAYS        YEARS
                    -----------------------------------------------------------
   TIME STEP LENGTH 1.88520E+05  3142.0      52.367      2.1819     5.97382E-03
 STRESS PERIOD TIME 3.45619E+05  5760.3      96.005      4.0002     1.09520E-02
         TOTAL TIME 8.20802E+06 1.36800E+05  2280.0      95.000     0.26010    


end timestep


start timestep kper="5" kstp="3" mode="normal"

 UBDSV1 SAVING     FLOW-JA-FACE ON UNIT   1015 AT TIME STEP      3, STRESS PERIOD      5
 UBDSV06 SAVING              WEL IN MODEL MUMODEL          PACKAGE MUMODEL         CONNECTED TO MODEL MUMODEL          PACKAGE WEL-1            ON UNIT   1015 AT TIME STEP      3, STRESS PERIOD      5
 UBDSV06 SAVING             RCHA IN MODEL MUMODEL          PACKAGE MUMODEL         CONNECTED TO MODEL MUMODEL          PACKAGE RCH-1            ON UNIT   1015 AT TIME STEP      3, STRESS PERIOD      5

 WEL PACKAGE (WEL-1) FLOW RATES   PERIOD      5   STEP        3
 -----------------------------------------------
   NUMBER   CELLID                    RATE      
 -----------------------------------------------
     1      (1,5,5)               0.0000000     
     2      (1,11,5)              0.0000000     
     3      (1,5,5)               0.0000000     
 -----------------------------------------------




 CHD PACKAGE (CHD-FROM-IBOUND) FLOW RATES   PERIOD      5   STEP        3
 -----------------------------------------------
   NUMBER   CELLID                    RATE      
 -----------------------------------------------
     1      (1,1,1)              -1281.4063     
     2      (1,1,2)              -1281.4019     
     3      (1,1,3)              -1281.4016     
     4      (1,1,4)              -1281.4031     
     5      (1,1,5)              -1281.4050     
     6      (1,1,6)              -1281.4067     
     7      (1,1,7)              -1281.4083     
     8      (1,1,8)              -1281.4104     
     9      (1,1,9)              -1281.4129     
     10     (1,21,1)             -1281.4120     
     11     (1,21,2)             -1281.4089     
     12     (1,21,3)             -1281.4068     
     13     (1,21,4)             -1281.4050     
     14     (1,21,5)             -1281.4030     
     15     (1,21,6)             -1281.4011     
     16     (1,21,7)             -1281.4006     
     17     (1,21,8)             -1281.4031     
     18     (1,21,9)             -1281.4102     
 -----------------------------------------------




 HEAD WILL BE SAVED ON UNIT 1016 AT END OF TIME STEP    3, STRESS PERIOD    5


  VOLUME BUDGET FOR ENTIRE MODEL AT END OF TIME STEP    3, STRESS PERIOD   5
  ---------------------------------------------------------------------------------------------------

     CUMULATIVE VOLUME      L**3       RATES FOR THIS TIME STEP      L**3/T          PACKAGE NAME    
     ------------------                 ------------------------                     ----------------

           IN:                                      IN:
           ---                                      ---
              STO-SS =           0.0000                STO-SS =           0.0000     STORAGE                          
              STO-SY =           0.0000                STO-SY =           0.0000     STORAGE                          
                 WEL =           0.0000                   WEL =           0.0000     WEL-1                            
                RCHA =    11087453.8999                  RCHA =      128250.0000     RCH-1                            
                 CHD =           0.0000                   CHD =           0.0000     CHD-FROM-IBOUND                  

            TOTAL IN =    11087453.8999              TOTAL IN =      128250.0000

          OUT:                                     OUT:
          ----                                     ----
              STO-SS =     8578736.9690                STO-SS =      100974.6486     STORAGE                          
              STO-SY =      358688.2032                STO-SY =        4210.0443     STORAGE                          
                 WEL =           0.0000                   WEL =           0.0000     WEL-1                            
                RCHA =           0.0000                  RCHA =           0.0000     RCH-1                            
                 CHD =     2150032.3513                   CHD =       23065.3072     CHD-FROM-IBOUND                  

           TOTAL OUT =    11087457.5236             TOTAL OUT =      128250.0001

            IN - OUT =          -3.6237              IN - OUT =      -5.2649E-05

 PERCENT DISCREPANCY =          -0.00     PERCENT DISCREPANCY =          -0.00




         TIME SUMMARY AT END OF TIME STEP    3 IN STRESS PERIOD    5
                    SECONDS     MINUTES      HOURS       DAYS        YEARS
                    -----------------------------------------------------------
   TIME STEP LENGTH 2.26223E+05  3770.4      62.840      2.6183     7.16859E-03
 STRESS PERIOD TIME 5.71843E+05  9530.7      158.85      6.6185     1.81206E-02
         TOTAL TIME 8.43424E+06 1.40571E+05  2342.8      97.619     0.26727    


end timestep


start timestep kper="5" kstp="4" mode="normal"

 UBDSV1 SAVING     FLOW-JA-FACE ON UNIT   1015 AT TIME STEP      4, STRESS PERIOD      5
 UBDSV06 SAVING              WEL IN MODEL MUMODEL          PACKAGE MUMODEL         CONNECTED TO MODEL MUMODEL          PACKAGE WEL-1            ON UNIT   1015 AT TIME STEP      4, STRESS PERIOD      5
 UBDSV06 SAVING             RCHA IN MODEL MUMODEL          PACKAGE MUMODEL         CONNECTED TO MODEL MUMODEL          PACKAGE RCH-1            ON UNIT   1015 AT TIME STEP      4, STRESS PERIOD      5

 WEL PACKAGE (WEL-1) FLOW RATES   PERIOD      5   STEP        4
 -----------------------------------------------
   NUMBER   CELLID                    RATE      
 -----------------------------------------------
     1      (1,5,5)               0.0000000     
     2      (1,11,5)              0.0000000     
     3      (1,5,5)               0.0000000     
 -----------------------------------------------




 CHD PACKAGE (CHD-FROM-IBOUND) FLOW RATES   PERIOD      5   STEP        4
 -----------------------------------------------
   NUMBER   CELLID                    RATE      
 -----------------------------------------------
     1      (1,1,1)              -1284.6068     
     2      (1,1,2)              -1284.6025     
     3      (1,1,3)              -1284.6021     
     4      (1,1,4)              -1284.6037     
     5      (1,1,5)              -1284.6055     
     6      (1,1,6)              -1284.6072     
     7      (1,1,7)              -1284.6088     
     8      (1,1,8)              -1284.6109     
     9      (1,1,9)              -1284.6133     
     10     (1,21,1)             -1284.6124     
     11     (1,21,2)             -1284.6094     
     12     (1,21,3)             -1284.6073     
     13     (1,21,4)             -1284.6055     
     14     (1,21,5)             -1284.6035     
     15     (1,21,6)             -1284.6017     
     16     (1,21,7)             -1284.6012     
     17     (1,21,8)             -1284.6037     
     18     (1,21,9)             -1284.6107     
 -----------------------------------------------




 HEAD WILL BE SAVED ON UNIT 1016 AT END OF TIME STEP    4, STRESS PERIOD    5


  VOLUME BUDGET FOR ENTIRE MODEL AT END OF TIME STEP    4, STRESS PERIOD   5
  ---------------------------------------------------------------------------------------------------

     CUMULATIVE VOLUME      L**3       RATES FOR THIS TIME STEP      L**3/T          PACKAGE NAME    
     ------------------                 ------------------------                     ----------------

           IN:                                      IN:
           ---                                      ---
              STO-SS =           0.0000                STO-SS =           0.0000     STORAGE                          
              STO-SY =           0.0000                STO-SY =           0.0000     STORAGE                          
                 WEL =           0.0000                   WEL =           0.0000     WEL-1                            
                RCHA =    11490414.4326                  RCHA =      128250.0000     RCH-1                            
                 CHD =           0.0000                   CHD =           0.0000     CHD-FROM-IBOUND                  

            TOTAL IN =    11490414.4326              TOTAL IN =      128250.0000

          OUT:                                     OUT:
          ----                                     ----
              STO-SS =     8895827.1344                STO-SS =      100920.0912     STORAGE                          
              STO-SY =      371906.5423                STO-SY =        4206.9926     STORAGE                          
                 WEL =           0.0000                   WEL =           0.0000     WEL-1                            
                RCHA =           0.0000                  RCHA =           0.0000     RCH-1                            
                 CHD =     2222684.3798                   CHD =       23122.9163     CHD-FROM-IBOUND                  

           TOTAL OUT =    11490418.0565             TOTAL OUT =      128250.0001

            IN - OUT =          -3.6240              IN - OUT =      -8.6693E-05

 PERCENT DISCREPANCY =          -0.00     PERCENT DISCREPANCY =          -0.00




         TIME SUMMARY AT END OF TIME STEP    4 IN STRESS PERIOD    5
                    SECONDS     MINUTES      HOURS       DAYS        YEARS
                    -----------------------------------------------------------
   TIME STEP LENGTH 2.71468E+05  4524.5      75.408      3.1420     8.60231E-03
 STRESS PERIOD TIME 8.43311E+05  14055.      234.25      9.7605     2.67229E-02
         TOTAL TIME 8.70571E+06 1.45095E+05  2418.3      100.76     0.27587    


end timestep


start timestep kper="5" kstp="5" mode="normal"

 UBDSV1 SAVING     FLOW-JA-FACE ON UNIT   1015 AT TIME STEP      5, STRESS PERIOD      5
 UBDSV06 SAVING              WEL IN MODEL MUMODEL          PACKAGE MUMODEL         CONNECTED TO MODEL MUMODEL          PACKAGE WEL-1            ON UNIT   1015 AT TIME STEP      5, STRESS PERIOD      5
 UBDSV06 SAVING             RCHA IN MODEL MUMODEL          PACKAGE MUMODEL         CONNECTED TO MODEL MUMODEL          PACKAGE RCH-1            ON UNIT   1015 AT TIME STEP      5, STRESS PERIOD      5

 WEL PACKAGE (WEL-1) FLOW RATES   PERIOD      5   STEP        5
 -----------------------------------------------
   NUMBER   CELLID                    RATE      
 -----------------------------------------------
     1      (1,5,5)               0.0000000     
     2      (1,11,5)              0.0000000     
     3      (1,5,5)               0.0000000     
 -----------------------------------------------




 CHD PACKAGE (CHD-FROM-IBOUND) FLOW RATES   PERIOD      5   STEP        5
 -----------------------------------------------
   NUMBER   CELLID                    RATE      
 -----------------------------------------------
     1      (1,1,1)              -1288.4245     
     2      (1,1,2)              -1288.4202     
     3      (1,1,3)              -1288.4198     
     4      (1,1,4)              -1288.4214     
     5      (1,1,5)              -1288.4232     
     6      (1,1,6)              -1288.4249     
     7      (1,1,7)              -1288.4265     
     8      (1,1,8)              -1288.4286     
     9      (1,1,9)              -1288.4310     
     10     (1,21,1)             -1288.4301     
     11     (1,21,2)             -1288.4271     
     12     (1,21,3)             -1288.4250     
     13     (1,21,4)             -1288.4232     
     14     (1,21,5)             -1288.4212     
     15     (1,21,6)             -1288.4194     
     16     (1,21,7)             -1288.4189     
     17     (1,21,8)             -1288.4215     
     18     (1,21,9)             -1288.4284     
 -----------------------------------------------




 HEAD WILL BE SAVED ON UNIT 1016 AT END OF TIME STEP    5, STRESS PERIOD    5


  VOLUME BUDGET FOR ENTIRE MODEL AT END OF TIME STEP    5, STRESS PERIOD   5
  ---------------------------------------------------------------------------------------------------

     CUMULATIVE VOLUME      L**3       RATES FOR THIS TIME STEP      L**3/T          PACKAGE NAME    
     ------------------                 ------------------------                     ----------------

           IN:                                      IN:
           ---                                      ---
              STO-SS =           0.0000                STO-SS =           0.0000     STORAGE                          
              STO-SY =           0.0000                STO-SY =           0.0000     STORAGE                          
                 WEL =           0.0000                   WEL =           0.0000     WEL-1                            
                RCHA =    11973967.0718                  RCHA =      128250.0000     RCH-1                            
                 CHD =           0.0000                   CHD =           0.0000     CHD-FROM-IBOUND                  

            TOTAL IN =    11973967.0718              TOTAL IN =      128250.0000

          OUT:                                     OUT:
          ----                                     ----
              STO-SS =     9276089.9657                STO-SS =      100855.0138     STORAGE                          
              STO-SY =      387754.8206                STO-SY =        4203.3514     STORAGE                          
                 WEL =           0.0000                   WEL =           0.0000     WEL-1                            
                RCHA =           0.0000                  RCHA =           0.0000     RCH-1                            
                 CHD =     2310125.9101                   CHD =       23191.6349     CHD-FROM-IBOUND                  

           TOTAL OUT =    11973970.6963             TOTAL OUT =      128250.0001

            IN - OUT =          -3.6245              IN - OUT =      -1.4512E-04

 PERCENT DISCREPANCY =          -0.00     PERCENT DISCREPANCY =          -0.00




         TIME SUMMARY AT END OF TIME STEP    5 IN STRESS PERIOD    5
                    SECONDS     MINUTES      HOURS       DAYS        YEARS
                    -----------------------------------------------------------
   TIME STEP LENGTH 3.25762E+05  5429.4      90.489      3.7704     1.03228E-02
 STRESS PERIOD TIME 1.16907E+06  19485.      324.74      13.531     3.70457E-02
         TOTAL TIME 9.03147E+06 1.50525E+05  2508.7      104.53     0.28619    


end timestep


start timestep kper="5" kstp="6" mode="normal"

 UBDSV1 SAVING     FLOW-JA-FACE ON UNIT   1015 AT TIME STEP      6, STRESS PERIOD      5
 UBDSV06 SAVING              WEL IN MODEL MUMODEL          PACKAGE MUMODEL         CONNECTED TO MODEL MUMODEL          PACKAGE WEL-1            ON UNIT   1015 AT TIME STEP      6, STRESS PERIOD      5
 UBDSV06 SAVING             RCHA IN MODEL MUMODEL          PACKAGE MUMODEL         CONNECTED TO MODEL MUMODEL          PACKAGE RCH-1            ON UNIT   1015 AT TIME STEP      6, STRESS PERIOD      5

 WEL PACKAGE (WEL-1) FLOW RATES   PERIOD      5   STEP        6
 -----------------------------------------------
   NUMBER   CELLID                    RATE      
 -----------------------------------------------
     1      (1,5,5)               0.0000000     
     2      (1,11,5)              0.0000000     
     3      (1,5,5)               0.0000000     
 -----------------------------------------------




 CHD PACKAGE (CHD-FROM-IBOUND) FLOW RATES   PERIOD      5   STEP        6
 -----------------------------------------------
   NUMBER   CELLID                    RATE      
 -----------------------------------------------
     1      (1,1,1)              -1292.9733     
     2      (1,1,2)              -1292.9691     
     3      (1,1,3)              -1292.9686     
     4      (1,1,4)              -1292.9701     
     5      (1,1,5)              -1292.9720     
     6      (1,1,6)              -1292.9736     
     7      (1,1,7)              -1292.9752     
     8      (1,1,8)              -1292.9773     
     9      (1,1,9)              -1292.9797     
     10     (1,21,1)             -1292.9787     
     11     (1,21,2)             -1292.9758     
     12     (1,21,3)             -1292.9737     
     13     (1,21,4)             -1292.9720     
     14     (1,21,5)             -1292.9700     
     15     (1,21,6)             -1292.9682     
     16     (1,21,7)             -1292.9678     
     17     (1,21,8)             -1292.9703     
     18     (1,21,9)             -1292.9771     
 -----------------------------------------------




 HEAD WILL BE SAVED ON UNIT 1016 AT END OF TIME STEP    6, STRESS PERIOD    5


  VOLUME BUDGET FOR ENTIRE MODEL AT END OF TIME STEP    6, STRESS PERIOD   5
  ---------------------------------------------------------------------------------------------------

     CUMULATIVE VOLUME      L**3       RATES FOR THIS TIME STEP      L**3/T          PACKAGE NAME    
     ------------------                 ------------------------                     ----------------

           IN:                                      IN:
           ---                                      ---
              STO-SS =           0.0000                STO-SS =           0.0000     STORAGE                          
              STO-SY =           0.0000                STO-SY =           0.0000     STORAGE                          
                 WEL =           0.0000                   WEL =           0.0000     WEL-1                            
                RCHA =    12554230.2389                  RCHA =      128250.0000     RCH-1                            
                 CHD =           0.0000                   CHD =           0.0000     CHD-FROM-IBOUND                  

            TOTAL IN =    12554230.2389              TOTAL IN =      128250.0000

          OUT:                                     OUT:
          ----                                     ----
              STO-SS =     9732054.5462                STO-SS =      100777.4761     STORAGE                          
              STO-SY =      406753.1185                STO-SY =        4199.0115     STORAGE                          
                 WEL =           0.0000                   WEL =           0.0000     WEL-1                            
                RCHA =           0.0000                  RCHA =           0.0000     RCH-1                            
                 CHD =     2415426.1997                   CHD =       23273.5126     CHD-FROM-IBOUND                  

           TOTAL OUT =    12554233.8645             TOTAL OUT =      128250.0003

            IN - OUT =          -3.6256              IN - OUT =      -2.5104E-04

 PERCENT DISCREPANCY =          -0.00     PERCENT DISCREPANCY =          -0.00




         TIME SUMMARY AT END OF TIME STEP    6 IN STRESS PERIOD    5
                    SECONDS     MINUTES      HOURS       DAYS        YEARS
                    -----------------------------------------------------------
   TIME STEP LENGTH 3.90914E+05  6515.2      108.59      4.5245     1.23873E-02
 STRESS PERIOD TIME 1.55999E+06  26000.      433.33      18.055     4.94330E-02
         TOTAL TIME 9.42239E+06 1.57040E+05  2617.3      109.06     0.29858    


end timestep


start timestep kper="5" kstp="7" mode="normal"

 UBDSV1 SAVING     FLOW-JA-FACE ON UNIT   1015 AT TIME STEP      7, STRESS PERIOD      5
 UBDSV06 SAVING              WEL IN MODEL MUMODEL          PACKAGE MUMODEL         CONNECTED TO MODEL MUMODEL          PACKAGE WEL-1            ON UNIT   1015 AT TIME STEP      7, STRESS PERIOD      5
 UBDSV06 SAVING             RCHA IN MODEL MUMODEL          PACKAGE MUMODEL         CONNECTED TO MODEL MUMODEL          PACKAGE RCH-1            ON UNIT   1015 AT TIME STEP      7, STRESS PERIOD      5

 WEL PACKAGE (WEL-1) FLOW RATES   PERIOD      5   STEP        7
 -----------------------------------------------
   NUMBER   CELLID                    RATE      
 -----------------------------------------------
     1      (1,5,5)               0.0000000     
     2      (1,11,5)              0.0000000     
     3      (1,5,5)               0.0000000     
 -----------------------------------------------




 CHD PACKAGE (CHD-FROM-IBOUND) FLOW RATES   PERIOD      5   STEP        7
 -----------------------------------------------
   NUMBER   CELLID                    RATE      
 -----------------------------------------------
     1      (1,1,1)              -1298.3859     
     2      (1,1,2)              -1298.3817     
     3      (1,1,3)              -1298.3813     
     4      (1,1,4)              -1298.3828     
     5      (1,1,5)              -1298.3846     
     6      (1,1,6)              -1298.3862     
     7      (1,1,7)              -1298.3878     
     8      (1,1,8)              -1298.3899     
     9      (1,1,9)              -1298.3922     
     10     (1,21,1)             -1298.3912     
     11     (1,21,2)             -1298.3883     
     12     (1,21,3)             -1298.3863     
     13     (1,21,4)             -1298.3846     
     14     (1,21,5)             -1298.3826     
     15     (1,21,6)             -1298.3809     
     16     (1,21,7)             -1298.3805     
     17     (1,21,8)             -1298.3831     
     18     (1,21,9)             -1298.3897     
 -----------------------------------------------




 HEAD WILL BE SAVED ON UNIT 1016 AT END OF TIME STEP    7, STRESS PERIOD    5


  VOLUME BUDGET FOR ENTIRE MODEL AT END OF TIME STEP    7, STRESS PERIOD   5
  ---------------------------------------------------------------------------------------------------

     CUMULATIVE VOLUME      L**3       RATES FOR THIS TIME STEP      L**3/T          PACKAGE NAME    
     ------------------                 ------------------------                     ----------------

           IN:                                      IN:
           ---                                      ---
              STO-SS =           0.0000                STO-SS =           0.0000     STORAGE                          
              STO-SY =           0.0000                STO-SY =           0.0000     STORAGE                          
                 WEL =           0.0000                   WEL =           0.0000     WEL-1                            
                RCHA =    13250546.0394                  RCHA =      128250.0000     RCH-1                            
                 CHD =           0.0000                   CHD =           0.0000     CHD-FROM-IBOUND                  

            TOTAL IN =    13250546.0394              TOTAL IN =      128250.0000

          OUT:                                     OUT:
          ----                                     ----
              STO-SS =    10278711.1275                STO-SS =      100685.2157     STORAGE                          
              STO-SY =      429523.0266                STO-SY =        4193.8452     STORAGE                          
                 WEL =           0.0000                   WEL =           0.0000     WEL-1                            
                RCHA =           0.0000                  RCHA =           0.0000     RCH-1                            
                 CHD =     2542315.5133                   CHD =       23370.9395     CHD-FROM-IBOUND                  

           TOTAL OUT =    13250549.6673             TOTAL OUT =      128250.0004

            IN - OUT =          -3.6279              IN - OUT =      -4.2488E-04

 PERCENT DISCREPANCY =          -0.00     PERCENT DISCREPANCY =          -0.00




         TIME SUMMARY AT END OF TIME STEP    7 IN STRESS PERIOD    5
                    SECONDS     MINUTES      HOURS       DAYS        YEARS
                    -----------------------------------------------------------
   TIME STEP LENGTH 4.69097E+05  7818.3      130.30      5.4294     1.48648E-02
 STRESS PERIOD TIME 2.02908E+06  33818.      563.63      23.485     6.42978E-02
         TOTAL TIME 9.89148E+06 1.64858E+05  2747.6      114.48     0.31344    


end timestep


start timestep kper="5" kstp="8" mode="normal"

 UBDSV1 SAVING     FLOW-JA-FACE ON UNIT   1015 AT TIME STEP      8, STRESS PERIOD      5
 UBDSV06 SAVING              WEL IN MODEL MUMODEL          PACKAGE MUMODEL         CONNECTED TO MODEL MUMODEL          PACKAGE WEL-1            ON UNIT   1015 AT TIME STEP      8, STRESS PERIOD      5
 UBDSV06 SAVING             RCHA IN MODEL MUMODEL          PACKAGE MUMODEL         CONNECTED TO MODEL MUMODEL          PACKAGE RCH-1            ON UNIT   1015 AT TIME STEP      8, STRESS PERIOD      5

 WEL PACKAGE (WEL-1) FLOW RATES   PERIOD      5   STEP        8
 -----------------------------------------------
   NUMBER   CELLID                    RATE      
 -----------------------------------------------
     1      (1,5,5)               0.0000000     
     2      (1,11,5)              0.0000000     
     3      (1,5,5)               0.0000000     
 -----------------------------------------------




 CHD PACKAGE (CHD-FROM-IBOUND) FLOW RATES   PERIOD      5   STEP        8
 -----------------------------------------------
   NUMBER   CELLID                    RATE      
 -----------------------------------------------
     1      (1,1,1)              -1304.8163     
     2      (1,1,2)              -1304.8123     
     3      (1,1,3)              -1304.8118     
     4      (1,1,4)              -1304.8132     
     5      (1,1,5)              -1304.8150     
     6      (1,1,6)              -1304.8166     
     7      (1,1,7)              -1304.8182     
     8      (1,1,8)              -1304.8202     
     9      (1,1,9)              -1304.8225     
     10     (1,21,1)             -1304.8216     
     11     (1,21,2)             -1304.8187     
     12     (1,21,3)             -1304.8167     
     13     (1,21,4)             -1304.8150     
     14     (1,21,5)             -1304.8131     
     15     (1,21,6)             -1304.8114     
     16     (1,21,7)             -1304.8111     
     17     (1,21,8)             -1304.8137     
     18     (1,21,9)             -1304.8202     
 -----------------------------------------------




 HEAD WILL BE SAVED ON UNIT 1016 AT END OF TIME STEP    8, STRESS PERIOD    5


  VOLUME BUDGET FOR ENTIRE MODEL AT END OF TIME STEP    8, STRESS PERIOD   5
  ---------------------------------------------------------------------------------------------------

     CUMULATIVE VOLUME      L**3       RATES FOR THIS TIME STEP      L**3/T          PACKAGE NAME    
     ------------------                 ------------------------                     ----------------

           IN:                                      IN:
           ---                                      ---
              STO-SS =           0.0000                STO-SS =           0.0000     STORAGE                          
              STO-SY =           0.0000                STO-SY =           0.0000     STORAGE                          
                 WEL =           0.0000                   WEL =           0.0000     WEL-1                            
                RCHA =    14086125.0000                  RCHA =      128250.0000     RCH-1                            
                 CHD =           0.0000                   CHD =           0.0000     CHD-FROM-IBOUND                  

            TOTAL IN =    14086125.0000              TOTAL IN =      128250.0000

          OUT:                                     OUT:
          ----                                     ----
              STO-SS =    10933984.9096                STO-SS =      100575.6087     STORAGE                          
              STO-SY =      456806.9075                STO-SY =        4187.7044     STORAGE                          
                 WEL =           0.0000                   WEL =           0.0000     WEL-1                            
                RCHA =           0.0000                  RCHA =           0.0000     RCH-1                            
                 CHD =     2695336.8155                   CHD =       23486.6876     CHD-FROM-IBOUND                  

           TOTAL OUT =    14086128.6326             TOTAL OUT =      128250.0007

            IN - OUT =          -3.6326              IN - OUT =      -7.1856E-04

 PERCENT DISCREPANCY =          -0.00     PERCENT DISCREPANCY =          -0.00




         TIME SUMMARY AT END OF TIME STEP    8 IN STRESS PERIOD    5
                    SECONDS     MINUTES      HOURS       DAYS        YEARS
                    -----------------------------------------------------------
   TIME STEP LENGTH 5.62916E+05  9381.9      156.37      6.5152     1.78377E-02
 STRESS PERIOD TIME 2.59200E+06  43200.      720.00      30.000     8.21355E-02
         TOTAL TIME 1.04544E+07 1.74240E+05  2904.0      121.00     0.33128    


end timestep


start timestep kper="6" kstp="1" mode="normal"


 OUTPUT CONTROL FOR STRESS PERIOD 6 IS REPEATED USING SETTINGS FROM A PREVIOUS STRESS PERIOD.


 STRESS PERIOD 6 IS TRANSIENT


 REUSING WELS FROM LAST STRESS PERIOD

                 RECHARGE =  0.1000000E-02

 REUSING CHDS FROM LAST STRESS PERIOD
 UBDSV1 SAVING     FLOW-JA-FACE ON UNIT   1015 AT TIME STEP      1, STRESS PERIOD      6
 UBDSV06 SAVING              WEL IN MODEL MUMODEL          PACKAGE MUMODEL         CONNECTED TO MODEL MUMODEL          PACKAGE WEL-1            ON UNIT   1015 AT TIME STEP      1, STRESS PERIOD      6
 UBDSV06 SAVING             RCHA IN MODEL MUMODEL          PACKAGE MUMODEL         CONNECTED TO MODEL MUMODEL          PACKAGE RCH-1            ON UNIT   1015 AT TIME STEP      1, STRESS PERIOD      6

 WEL PACKAGE (WEL-1) FLOW RATES   PERIOD      6   STEP        1
 -----------------------------------------------
   NUMBER   CELLID                    RATE      
 -----------------------------------------------
     1      (1,5,5)               0.0000000     
     2      (1,11,5)              0.0000000     
     3      (1,5,5)               0.0000000     
 -----------------------------------------------




 CHD PACKAGE (CHD-FROM-IBOUND) FLOW RATES   PERIOD      6   STEP        1
 -----------------------------------------------
   NUMBER   CELLID                    RATE      
 -----------------------------------------------
     1      (1,1,1)              -1304.8802     
     2      (1,1,2)              -1304.8762     
     3      (1,1,3)              -1304.8757     
     4      (1,1,4)              -1304.8772     
     5      (1,1,5)              -1304.8790     
     6      (1,1,6)              -1304.8806     
     7      (1,1,7)              -1304.8822     
     8      (1,1,8)              -1304.8842     
     9      (1,1,9)              -1304.8864     
     10     (1,21,1)             -1304.8855     
     11     (1,21,2)             -1304.8827     
     12     (1,21,3)             -1304.8806     
     13     (1,21,4)             -1304.8789     
     14     (1,21,5)             -1304.8771     
     15     (1,21,6)             -1304.8754     
     16     (1,21,7)             -1304.8751     
     17     (1,21,8)             -1304.8776     
     18     (1,21,9)             -1304.8841     
 -----------------------------------------------




 HEAD WILL BE SAVED ON UNIT 1016 AT END OF TIME STEP    1, STRESS PERIOD    6


  VOLUME BUDGET FOR ENTIRE MODEL AT END OF TIME STEP    1, STRESS PERIOD   6
  ---------------------------------------------------------------------------------------------------

     CUMULATIVE VOLUME      L**3       RATES FOR THIS TIME STEP      L**3/T          PACKAGE NAME    
     ------------------                 ------------------------                     ----------------

           IN:                                      IN:
           ---                                      ---
              STO-SS =           0.0000                STO-SS =           0.0000     STORAGE                          
              STO-SY =           0.0000                STO-SY =           0.0000     STORAGE                          
                 WEL =           0.0000                   WEL =           0.0000     WEL-1                            
                RCHA =    14166447.6370                  RCHA =       42750.0000     RCH-1                            
                 CHD =           0.0000                   CHD =           0.0000     CHD-FROM-IBOUND                  

            TOTAL IN =    14166447.6370              TOTAL IN =       42750.0000

          OUT:                                     OUT:
          ----                                     ----
              STO-SS =    10968745.2905                STO-SS =       18500.4669     STORAGE                          
              STO-SY =      458238.3079                STO-SY =         761.8321     STORAGE                          
                 WEL =           0.0000                   WEL =           0.0000     WEL-1                            
                RCHA =           0.0000                  RCHA =           0.0000     RCH-1                            
                 CHD =     2739467.9298                   CHD =       23487.8386     CHD-FROM-IBOUND                  

           TOTAL OUT =    14166451.5283             TOTAL OUT =       42750.1376

            IN - OUT =          -3.8912              IN - OUT =          -0.1376

 PERCENT DISCREPANCY =          -0.00     PERCENT DISCREPANCY =          -0.00




         TIME SUMMARY AT END OF TIME STEP    1 IN STRESS PERIOD    6
                    SECONDS     MINUTES      HOURS       DAYS        YEARS
                    -----------------------------------------------------------
   TIME STEP LENGTH 1.62336E+05  2705.6      45.093      1.8789     5.14413E-03
 STRESS PERIOD TIME 1.62336E+05  2705.6      45.093      1.8789     5.14413E-03
         TOTAL TIME 1.06167E+07 1.76946E+05  2949.1      122.88     0.33642    


end timestep


start timestep kper="6" kstp="2" mode="normal"

 UBDSV1 SAVING     FLOW-JA-FACE ON UNIT   1015 AT TIME STEP      2, STRESS PERIOD      6
 UBDSV06 SAVING              WEL IN MODEL MUMODEL          PACKAGE MUMODEL         CONNECTED TO MODEL MUMODEL          PACKAGE WEL-1            ON UNIT   1015 AT TIME STEP      2, STRESS PERIOD      6
 UBDSV06 SAVING             RCHA IN MODEL MUMODEL          PACKAGE MUMODEL         CONNECTED TO MODEL MUMODEL          PACKAGE RCH-1            ON UNIT   1015 AT TIME STEP      2, STRESS PERIOD      6

 WEL PACKAGE (WEL-1) FLOW RATES   PERIOD      6   STEP        2
 -----------------------------------------------
   NUMBER   CELLID                    RATE      
 -----------------------------------------------
     1      (1,5,5)               0.0000000     
     2      (1,11,5)              0.0000000     
     3      (1,5,5)               0.0000000     
 -----------------------------------------------




 CHD PACKAGE (CHD-FROM-IBOUND) FLOW RATES   PERIOD      6   STEP        2
 -----------------------------------------------
   NUMBER   CELLID                    RATE      
 -----------------------------------------------
     1      (1,1,1)              -1304.9602     
     2      (1,1,2)              -1304.9562     
     3      (1,1,3)              -1304.9557     
     4      (1,1,4)              -1304.9571     
     5      (1,1,5)              -1304.9589     
     6      (1,1,6)              -1304.9605     
     7      (1,1,7)              -1304.9621     
     8      (1,1,8)              -1304.9641     
     9      (1,1,9)              -1304.9664     
     10     (1,21,1)             -1304.9654     
     11     (1,21,2)             -1304.9626     
     12     (1,21,3)             -1304.9605     
     13     (1,21,4)             -1304.9589     
     14     (1,21,5)             -1304.9570     
     15     (1,21,6)             -1304.9554     
     16     (1,21,7)             -1304.9550     
     17     (1,21,8)             -1304.9576     
     18     (1,21,9)             -1304.9640     
 -----------------------------------------------




 HEAD WILL BE SAVED ON UNIT 1016 AT END OF TIME STEP    2, STRESS PERIOD    6


  VOLUME BUDGET FOR ENTIRE MODEL AT END OF TIME STEP    2, STRESS PERIOD   6
  ---------------------------------------------------------------------------------------------------

     CUMULATIVE VOLUME      L**3       RATES FOR THIS TIME STEP      L**3/T          PACKAGE NAME    
     ------------------                 ------------------------                     ----------------

           IN:                                      IN:
           ---                                      ---
              STO-SS =           0.0000                STO-SS =           0.0000     STORAGE                          
              STO-SY =           0.0000                STO-SY =           0.0000     STORAGE                          
                 WEL =           0.0000                   WEL =           0.0000     WEL-1                            
                RCHA =    14262834.8015                  RCHA =       42750.0000     RCH-1                            
                 CHD =           0.0000                   CHD =           0.0000     CHD-FROM-IBOUND                  

            TOTAL IN =    14262834.8015              TOTAL IN =       42750.0000

          OUT:                                     OUT:
          ----                                     ----
              STO-SS =    11010454.7014                STO-SS =       18499.1158     STORAGE                          
              STO-SY =      459955.8522                STO-SY =         761.7717     STORAGE                          
                 WEL =           0.0000                   WEL =           0.0000     WEL-1                            
                RCHA =           0.0000                  RCHA =           0.0000     RCH-1                            
                 CHD =     2792428.5112                   CHD =       23489.2775     CHD-FROM-IBOUND                  

           TOTAL OUT =    14262839.0648             TOTAL OUT =       42750.1650

            IN - OUT =          -4.2633              IN - OUT =          -0.1650

 PERCENT DISCREPANCY =          -0.00     PERCENT DISCREPANCY =          -0.00




         TIME SUMMARY AT END OF TIME STEP    2 IN STRESS PERIOD    6
                    SECONDS     MINUTES      HOURS       DAYS        YEARS
                    -----------------------------------------------------------
   TIME STEP LENGTH 1.94804E+05  3246.7      54.112      2.2547     6.17295E-03
 STRESS PERIOD TIME 3.57140E+05  5952.3      99.206      4.1336     1.13171E-02
         TOTAL TIME 1.08115E+07 1.80192E+05  3003.2      125.13     0.34260    


end timestep


start timestep kper="6" kstp="3" mode="normal"

 UBDSV1 SAVING     FLOW-JA-FACE ON UNIT   1015 AT TIME STEP      3, STRESS PERIOD      6
 UBDSV06 SAVING              WEL IN MODEL MUMODEL          PACKAGE MUMODEL         CONNECTED TO MODEL MUMODEL          PACKAGE WEL-1            ON UNIT   1015 AT TIME STEP      3, STRESS PERIOD      6
 UBDSV06 SAVING             RCHA IN MODEL MUMODEL          PACKAGE MUMODEL         CONNECTED TO MODEL MUMODEL          PACKAGE RCH-1            ON UNIT   1015 AT TIME STEP      3, STRESS PERIOD      6

 WEL PACKAGE (WEL-1) FLOW RATES   PERIOD      6   STEP        3
 -----------------------------------------------
   NUMBER   CELLID                    RATE      
 -----------------------------------------------
     1      (1,5,5)               0.0000000     
     2      (1,11,5)              0.0000000     
     3      (1,5,5)               0.0000000     
 -----------------------------------------------




 CHD PACKAGE (CHD-FROM-IBOUND) FLOW RATES   PERIOD      6   STEP        3
 -----------------------------------------------
   NUMBER   CELLID                    RATE      
 -----------------------------------------------
     1      (1,1,1)              -1305.0581     
     2      (1,1,2)              -1305.0542     
     3      (1,1,3)              -1305.0536     
     4      (1,1,4)              -1305.0550     
     5      (1,1,5)              -1305.0568     
     6      (1,1,6)              -1305.0584     
     7      (1,1,7)              -1305.0600     
     8      (1,1,8)              -1305.0620     
     9      (1,1,9)              -1305.0642     
     10     (1,21,1)             -1305.0632     
     11     (1,21,2)             -1305.0605     
     12     (1,21,3)             -1305.0585     
     13     (1,21,4)             -1305.0568     
     14     (1,21,5)             -1305.0549     
     15     (1,21,6)             -1305.0533     
     16     (1,21,7)             -1305.0530     
     17     (1,21,8)             -1305.0556     
     18     (1,21,9)             -1305.0620     
 -----------------------------------------------




 HEAD WILL BE SAVED ON UNIT 1016 AT END OF TIME STEP    3, STRESS PERIOD    6


  VOLUME BUDGET FOR ENTIRE MODEL AT END OF TIME STEP    3, STRESS PERIOD   6
  ---------------------------------------------------------------------------------------------------

     CUMULATIVE VOLUME      L**3       RATES FOR THIS TIME STEP      L**3/T          PACKAGE NAME    
     ------------------                 ------------------------                     ----------------

           IN:                                      IN:
           ---                                      ---
              STO-SS =           0.0000                STO-SS =           0.0000     STORAGE                          
              STO-SY =           0.0000                STO-SY =           0.0000     STORAGE                          
                 WEL =           0.0000                   WEL =           0.0000     WEL-1                            
                RCHA =    14378499.3989                  RCHA =       42750.0000     RCH-1                            
                 CHD =           0.0000                   CHD =           0.0000     CHD-FROM-IBOUND                  

            TOTAL IN =    14378499.3989              TOTAL IN =       42750.0000

          OUT:                                     OUT:
          ----                                     ----
              STO-SS =    11060501.5147                STO-SS =       18497.4601     STORAGE                          
              STO-SY =      462016.7047                STO-SY =         761.6976     STORAGE                          
                 WEL =           0.0000                   WEL =           0.0000     WEL-1                            
                RCHA =           0.0000                  RCHA =           0.0000     RCH-1                            
                 CHD =     2855985.9780                   CHD =       23491.0402     CHD-FROM-IBOUND                  

           TOTAL OUT =    14378504.1975             TOTAL OUT =       42750.1979

            IN - OUT =          -4.7986              IN - OUT =          -0.1979

 PERCENT DISCREPANCY =          -0.00     PERCENT DISCREPANCY =          -0.00




         TIME SUMMARY AT END OF TIME STEP    3 IN STRESS PERIOD    6
                    SECONDS     MINUTES      HOURS       DAYS        YEARS
                    -----------------------------------------------------------
   TIME STEP LENGTH 2.33764E+05  3896.1      64.935      2.7056     7.40754E-03
 STRESS PERIOD TIME 5.90904E+05  9848.4      164.14      6.8392     1.87246E-02
         TOTAL TIME 1.10453E+07 1.84088E+05  3068.1      127.84     0.35000    


end timestep


start timestep kper="6" kstp="4" mode="normal"

 UBDSV1 SAVING     FLOW-JA-FACE ON UNIT   1015 AT TIME STEP      4, STRESS PERIOD      6
 UBDSV06 SAVING              WEL IN MODEL MUMODEL          PACKAGE MUMODEL         CONNECTED TO MODEL MUMODEL          PACKAGE WEL-1            ON UNIT   1015 AT TIME STEP      4, STRESS PERIOD      6
 UBDSV06 SAVING             RCHA IN MODEL MUMODEL          PACKAGE MUMODEL         CONNECTED TO MODEL MUMODEL          PACKAGE RCH-1            ON UNIT   1015 AT TIME STEP      4, STRESS PERIOD      6

 WEL PACKAGE (WEL-1) FLOW RATES   PERIOD      6   STEP        4
 -----------------------------------------------
   NUMBER   CELLID                    RATE      
 -----------------------------------------------
     1      (1,5,5)               0.0000000     
     2      (1,11,5)              0.0000000     
     3      (1,5,5)               0.0000000     
 -----------------------------------------------




 CHD PACKAGE (CHD-FROM-IBOUND) FLOW RATES   PERIOD      6   STEP        4
 -----------------------------------------------
   NUMBER   CELLID                    RATE      
 -----------------------------------------------
     1      (1,1,1)              -1305.1784     
     2      (1,1,2)              -1305.1746     
     3      (1,1,3)              -1305.1740     
     4      (1,1,4)              -1305.1754     
     5      (1,1,5)              -1305.1772     
     6      (1,1,6)              -1305.1788     
     7      (1,1,7)              -1305.1803     
     8      (1,1,8)              -1305.1823     
     9      (1,1,9)              -1305.1845     
     10     (1,21,1)             -1305.1835     
     11     (1,21,2)             -1305.1808     
     12     (1,21,3)             -1305.1788     
     13     (1,21,4)             -1305.1771     
     14     (1,21,5)             -1305.1753     
     15     (1,21,6)             -1305.1737     
     16     (1,21,7)             -1305.1734     
     17     (1,21,8)             -1305.1760     
     18     (1,21,9)             -1305.1823     
 -----------------------------------------------




 HEAD WILL BE SAVED ON UNIT 1016 AT END OF TIME STEP    4, STRESS PERIOD    6


  VOLUME BUDGET FOR ENTIRE MODEL AT END OF TIME STEP    4, STRESS PERIOD   6
  ---------------------------------------------------------------------------------------------------

     CUMULATIVE VOLUME      L**3       RATES FOR THIS TIME STEP      L**3/T          PACKAGE NAME    
     ------------------                 ------------------------                     ----------------

           IN:                                      IN:
           ---                                      ---
              STO-SS =           0.0000                STO-SS =           0.0000     STORAGE                          
              STO-SY =           0.0000                STO-SY =           0.0000     STORAGE                          
                 WEL =           0.0000                   WEL =           0.0000     WEL-1                            
                RCHA =    14517296.9157                  RCHA =       42750.0000     RCH-1                            
                 CHD =           0.0000                   CHD =           0.0000     CHD-FROM-IBOUND                  

            TOTAL IN =    14517296.9157              TOTAL IN =       42750.0000

          OUT:                                     OUT:
          ----                                     ----
              STO-SS =    11120551.0820                STO-SS =       18495.4245     STORAGE                          
              STO-SY =      464489.4311                STO-SY =         761.6062     STORAGE                          
                 WEL =           0.0000                   WEL =           0.0000     WEL-1                            
                RCHA =           0.0000                  RCHA =           0.0000     RCH-1                            
                 CHD =     2932261.9713                   CHD =       23493.2064     CHD-FROM-IBOUND                  

           TOTAL OUT =    14517302.4844             TOTAL OUT =       42750.2372

            IN - OUT =          -5.5687              IN - OUT =          -0.2372

 PERCENT DISCREPANCY =          -0.00     PERCENT DISCREPANCY =          -0.00




         TIME SUMMARY AT END OF TIME STEP    4 IN STRESS PERIOD    6
                    SECONDS     MINUTES      HOURS       DAYS        YEARS
                    -----------------------------------------------------------
   TIME STEP LENGTH 2.80517E+05  4675.3      77.921      3.2467     8.88905E-03
 STRESS PERIOD TIME 8.71421E+05  14524.      242.06      10.086     2.76137E-02
         TOTAL TIME 1.13258E+07 1.88764E+05  3146.1      131.09     0.35889    


end timestep


start timestep kper="6" kstp="5" mode="normal"

 UBDSV1 SAVING     FLOW-JA-FACE ON UNIT   1015 AT TIME STEP      5, STRESS PERIOD      6
 UBDSV06 SAVING              WEL IN MODEL MUMODEL          PACKAGE MUMODEL         CONNECTED TO MODEL MUMODEL          PACKAGE WEL-1            ON UNIT   1015 AT TIME STEP      5, STRESS PERIOD      6
 UBDSV06 SAVING             RCHA IN MODEL MUMODEL          PACKAGE MUMODEL         CONNECTED TO MODEL MUMODEL          PACKAGE RCH-1            ON UNIT   1015 AT TIME STEP      5, STRESS PERIOD      6

 WEL PACKAGE (WEL-1) FLOW RATES   PERIOD      6   STEP        5
 -----------------------------------------------
   NUMBER   CELLID                    RATE      
 -----------------------------------------------
     1      (1,5,5)               0.0000000     
     2      (1,11,5)              0.0000000     
     3      (1,5,5)               0.0000000     
 -----------------------------------------------




 CHD PACKAGE (CHD-FROM-IBOUND) FLOW RATES   PERIOD      6   STEP        5
 -----------------------------------------------
   NUMBER   CELLID                    RATE      
 -----------------------------------------------
     1      (1,1,1)              -1305.3268     
     2      (1,1,2)              -1305.3230     
     3      (1,1,3)              -1305.3224     
     4      (1,1,4)              -1305.3238     
     5      (1,1,5)              -1305.3256     
     6      (1,1,6)              -1305.3271     
     7      (1,1,7)              -1305.3287     
     8      (1,1,8)              -1305.3307     
     9      (1,1,9)              -1305.3329     
     10     (1,21,1)             -1305.3319     
     11     (1,21,2)             -1305.3292     
     12     (1,21,3)             -1305.3272     
     13     (1,21,4)             -1305.3255     
     14     (1,21,5)             -1305.3237     
     15     (1,21,6)             -1305.3221     
     16     (1,21,7)             -1305.3219     
     17     (1,21,8)             -1305.3245     
     18     (1,21,9)             -1305.3307     
 -----------------------------------------------




 HEAD WILL BE SAVED ON UNIT 1016 AT END OF TIME STEP    5, STRESS PERIOD    6


  VOLUME BUDGET FOR ENTIRE MODEL AT END OF TIME STEP    5, STRESS PERIOD   6
  ---------------------------------------------------------------------------------------------------

     CUMULATIVE VOLUME      L**3       RATES FOR THIS TIME STEP      L**3/T          PACKAGE NAME    
     ------------------                 ------------------------                     ----------------

           IN:                                      IN:
           ---                                      ---
              STO-SS =           0.0000                STO-SS =           0.0000     STORAGE                          
              STO-SY =           0.0000                STO-SY =           0.0000     STORAGE                          
                 WEL =           0.0000                   WEL =           0.0000     WEL-1                            
                RCHA =    14683853.9358                  RCHA =       42750.0000     RCH-1                            
                 CHD =           0.0000                   CHD =           0.0000     CHD-FROM-IBOUND                  

            TOTAL IN =    14683853.9358              TOTAL IN =       42750.0000

          OUT:                                     OUT:
          ----                                     ----
              STO-SS =    11192600.7792                STO-SS =       18492.9134     STORAGE                          
              STO-SY =      467456.2623                STO-SY =         761.4932     STORAGE                          
                 WEL =           0.0000                   WEL =           0.0000     WEL-1                            
                RCHA =           0.0000                  RCHA =           0.0000     RCH-1                            
                 CHD =     3023803.5704                   CHD =       23495.8776     CHD-FROM-IBOUND                  

           TOTAL OUT =    14683860.6120             TOTAL OUT =       42750.2842

            IN - OUT =          -6.6762              IN - OUT =          -0.2842

 PERCENT DISCREPANCY =          -0.00     PERCENT DISCREPANCY =          -0.00




         TIME SUMMARY AT END OF TIME STEP    5 IN STRESS PERIOD    6
                    SECONDS     MINUTES      HOURS       DAYS        YEARS
                    -----------------------------------------------------------
   TIME STEP LENGTH 3.36621E+05  5610.3      93.506      3.8961     1.06669E-02
 STRESS PERIOD TIME 1.20804E+06  20134.      335.57      13.982     3.82805E-02
         TOTAL TIME 1.16624E+07 1.94374E+05  3239.6      134.98     0.36956    


end timestep


start timestep kper="6" kstp="6" mode="normal"

 UBDSV1 SAVING     FLOW-JA-FACE ON UNIT   1015 AT TIME STEP      6, STRESS PERIOD      6
 UBDSV06 SAVING              WEL IN MODEL MUMODEL          PACKAGE MUMODEL         CONNECTED TO MODEL MUMODEL          PACKAGE WEL-1            ON UNIT   1015 AT TIME STEP      6, STRESS PERIOD      6
 UBDSV06 SAVING             RCHA IN MODEL MUMODEL          PACKAGE MUMODEL         CONNECTED TO MODEL MUMODEL          PACKAGE RCH-1            ON UNIT   1015 AT TIME STEP      6, STRESS PERIOD      6

 WEL PACKAGE (WEL-1) FLOW RATES   PERIOD      6   STEP        6
 -----------------------------------------------
   NUMBER   CELLID                    RATE      
 -----------------------------------------------
     1      (1,5,5)               0.0000000     
     2      (1,11,5)              0.0000000     
     3      (1,5,5)               0.0000000     
 -----------------------------------------------




 CHD PACKAGE (CHD-FROM-IBOUND) FLOW RATES   PERIOD      6   STEP        6
 -----------------------------------------------
   NUMBER   CELLID                    RATE      
 -----------------------------------------------
     1      (1,1,1)              -1305.5105     
     2      (1,1,2)              -1305.5067     
     3      (1,1,3)              -1305.5061     
     4      (1,1,4)              -1305.5075     
     5      (1,1,5)              -1305.5092     
     6      (1,1,6)              -1305.5108     
     7      (1,1,7)              -1305.5123     
     8      (1,1,8)              -1305.5143     
     9      (1,1,9)              -1305.5165     
     10     (1,21,1)             -1305.5154     
     11     (1,21,2)             -1305.5128     
     12     (1,21,3)             -1305.5108     
     13     (1,21,4)             -1305.5092     
     14     (1,21,5)             -1305.5074     
     15     (1,21,6)             -1305.5059     
     16     (1,21,7)             -1305.5056     
     17     (1,21,8)             -1305.5082     
     18     (1,21,9)             -1305.5143     
 -----------------------------------------------




 HEAD WILL BE SAVED ON UNIT 1016 AT END OF TIME STEP    6, STRESS PERIOD    6


  VOLUME BUDGET FOR ENTIRE MODEL AT END OF TIME STEP    6, STRESS PERIOD   6
  ---------------------------------------------------------------------------------------------------

     CUMULATIVE VOLUME      L**3       RATES FOR THIS TIME STEP      L**3/T          PACKAGE NAME    
     ------------------                 ------------------------                     ----------------

           IN:                                      IN:
           ---                                      ---
              STO-SS =           0.0000                STO-SS =           0.0000     STORAGE                          
              STO-SY =           0.0000                STO-SY =           0.0000     STORAGE                          
                 WEL =           0.0000                   WEL =           0.0000     WEL-1                            
                RCHA =    14883722.3601                  RCHA =       42750.0000     RCH-1                            
                 CHD =           0.0000                   CHD =           0.0000     CHD-FROM-IBOUND                  

            TOTAL IN =    14883722.3601              TOTAL IN =       42750.0000

          OUT:                                     OUT:
          ----                                     ----
              STO-SS =    11279045.8795                STO-SS =       18489.8042     STORAGE                          
              STO-SY =      471015.8038                STO-SY =         761.3529     STORAGE                          
                 WEL =           0.0000                   WEL =           0.0000     WEL-1                            
                RCHA =           0.0000                  RCHA =           0.0000     RCH-1                            
                 CHD =     3133668.9454                   CHD =       23499.1835     CHD-FROM-IBOUND                  

           TOTAL OUT =    14883730.6286             TOTAL OUT =       42750.3406

            IN - OUT =          -8.2685              IN - OUT =          -0.3406

 PERCENT DISCREPANCY =          -0.00     PERCENT DISCREPANCY =          -0.00




         TIME SUMMARY AT END OF TIME STEP    6 IN STRESS PERIOD    6
                    SECONDS     MINUTES      HOURS       DAYS        YEARS
                    -----------------------------------------------------------
   TIME STEP LENGTH 4.03945E+05  6732.4      112.21      4.6753     1.28002E-02
 STRESS PERIOD TIME 1.61199E+06  26866.      447.77      18.657     5.10808E-02
         TOTAL TIME 1.20664E+07 2.01106E+05  3351.8      139.66     0.38236    


end timestep


start timestep kper="6" kstp="7" mode="normal"

 UBDSV1 SAVING     FLOW-JA-FACE ON UNIT   1015 AT TIME STEP      7, STRESS PERIOD      6
 UBDSV06 SAVING              WEL IN MODEL MUMODEL          PACKAGE MUMODEL         CONNECTED TO MODEL MUMODEL          PACKAGE WEL-1            ON UNIT   1015 AT TIME STEP      7, STRESS PERIOD      6
 UBDSV06 SAVING             RCHA IN MODEL MUMODEL          PACKAGE MUMODEL         CONNECTED TO MODEL MUMODEL          PACKAGE RCH-1            ON UNIT   1015 AT TIME STEP      7, STRESS PERIOD      6

 WEL PACKAGE (WEL-1) FLOW RATES   PERIOD      6   STEP        7
 -----------------------------------------------
   NUMBER   CELLID                    RATE      
 -----------------------------------------------
     1      (1,5,5)               0.0000000     
     2      (1,11,5)              0.0000000     
     3      (1,5,5)               0.0000000     
 -----------------------------------------------




 CHD PACKAGE (CHD-FROM-IBOUND) FLOW RATES   PERIOD      6   STEP        7
 -----------------------------------------------
   NUMBER   CELLID                    RATE      
 -----------------------------------------------
     1      (1,1,1)              -1305.7453     
     2      (1,1,2)              -1305.7416     
     3      (1,1,3)              -1305.7410     
     4      (1,1,4)              -1305.7423     
     5      (1,1,5)              -1305.7441     
     6      (1,1,6)              -1305.7456     
     7      (1,1,7)              -1305.7472     
     8      (1,1,8)              -1305.7491     
     9      (1,1,9)              -1305.7513     
     10     (1,21,1)             -1305.7502     
     11     (1,21,2)             -1305.7476     
     12     (1,21,3)             -1305.7456     
     13     (1,21,4)             -1305.7440     
     14     (1,21,5)             -1305.7423     
     15     (1,21,6)             -1305.7408     
     16     (1,21,7)             -1305.7406     
     17     (1,21,8)             -1305.7432     
     18     (1,21,9)             -1305.7492     
 -----------------------------------------------




 HEAD WILL BE SAVED ON UNIT 1016 AT END OF TIME STEP    7, STRESS PERIOD    6


  VOLUME BUDGET FOR ENTIRE MODEL AT END OF TIME STEP    7, STRESS PERIOD   6
  ---------------------------------------------------------------------------------------------------

     CUMULATIVE VOLUME      L**3       RATES FOR THIS TIME STEP      L**3/T          PACKAGE NAME    
     ------------------                 ------------------------                     ----------------

           IN:                                      IN:
           ---                                      ---
              STO-SS =           0.0000                STO-SS =           0.0000     STORAGE                          
              STO-SY =           0.0000                STO-SY =           0.0000     STORAGE                          
                 WEL =           0.0000                   WEL =           0.0000     WEL-1                            
                RCHA =    15123564.4691                  RCHA =       42750.0000     RCH-1                            
                 CHD =           0.0000                   CHD =           0.0000     CHD-FROM-IBOUND                  

            TOTAL IN =    15123564.4691              TOTAL IN =       42750.0000

          OUT:                                     OUT:
          ----                                     ----
              STO-SS =    11382755.4501                STO-SS =       18485.4284     STORAGE                          
              STO-SY =      475286.1748                STO-SY =         761.1606     STORAGE                          
                 WEL =           0.0000                   WEL =           0.0000     WEL-1                            
                RCHA =           0.0000                  RCHA =           0.0000     RCH-1                            
                 CHD =     3265531.1129                   CHD =       23503.4110     CHD-FROM-IBOUND                  

           TOTAL OUT =    15123572.7378             TOTAL OUT =       42750.0000

            IN - OUT =          -8.2687              IN - OUT =      -2.4119E-05

 PERCENT DISCREPANCY =          -0.00     PERCENT DISCREPANCY =          -0.00




         TIME SUMMARY AT END OF TIME STEP    7 IN STRESS PERIOD    6
                    SECONDS     MINUTES      HOURS       DAYS        YEARS
                    -----------------------------------------------------------
   TIME STEP LENGTH 4.84734E+05  8078.9      134.65      5.6103     1.53603E-02
 STRESS PERIOD TIME 2.09672E+06  34945.      582.42      24.268     6.64410E-02
         TOTAL TIME 1.25511E+07 2.09185E+05  3486.4      145.27     0.39772    


end timestep


start timestep kper="6" kstp="8" mode="normal"

 UBDSV1 SAVING     FLOW-JA-FACE ON UNIT   1015 AT TIME STEP      8, STRESS PERIOD      6
 UBDSV06 SAVING              WEL IN MODEL MUMODEL          PACKAGE MUMODEL         CONNECTED TO MODEL MUMODEL          PACKAGE WEL-1            ON UNIT   1015 AT TIME STEP      8, STRESS PERIOD      6
 UBDSV06 SAVING             RCHA IN MODEL MUMODEL          PACKAGE MUMODEL         CONNECTED TO MODEL MUMODEL          PACKAGE RCH-1            ON UNIT   1015 AT TIME STEP      8, STRESS PERIOD      6

 WEL PACKAGE (WEL-1) FLOW RATES   PERIOD      6   STEP        8
 -----------------------------------------------
   NUMBER   CELLID                    RATE      
 -----------------------------------------------
     1      (1,5,5)               0.0000000     
     2      (1,11,5)              0.0000000     
     3      (1,5,5)               0.0000000     
 -----------------------------------------------




 CHD PACKAGE (CHD-FROM-IBOUND) FLOW RATES   PERIOD      6   STEP        8
 -----------------------------------------------
   NUMBER   CELLID                    RATE      
 -----------------------------------------------
     1      (1,1,1)              -1306.0318     
     2      (1,1,2)              -1306.0282     
     3      (1,1,3)              -1306.0276     
     4      (1,1,4)              -1306.0289     
     5      (1,1,5)              -1306.0306     
     6      (1,1,6)              -1306.0321     
     7      (1,1,7)              -1306.0336     
     8      (1,1,8)              -1306.0356     
     9      (1,1,9)              -1306.0377     
     10     (1,21,1)             -1306.0366     
     11     (1,21,2)             -1306.0340     
     12     (1,21,3)             -1306.0321     
     13     (1,21,4)             -1306.0305     
     14     (1,21,5)             -1306.0288     
     15     (1,21,6)             -1306.0274     
     16     (1,21,7)             -1306.0272     
     17     (1,21,8)             -1306.0299     
     18     (1,21,9)             -1306.0357     
 -----------------------------------------------




 HEAD WILL BE SAVED ON UNIT 1016 AT END OF TIME STEP    8, STRESS PERIOD    6


  VOLUME BUDGET FOR ENTIRE MODEL AT END OF TIME STEP    8, STRESS PERIOD   6
  ---------------------------------------------------------------------------------------------------

     CUMULATIVE VOLUME      L**3       RATES FOR THIS TIME STEP      L**3/T          PACKAGE NAME    
     ------------------                 ------------------------                     ----------------

           IN:                                      IN:
           ---                                      ---
              STO-SS =           0.0000                STO-SS =           0.0000     STORAGE                          
              STO-SY =           0.0000                STO-SY =           0.0000     STORAGE                          
                 WEL =           0.0000                   WEL =           0.0000     WEL-1                            
                RCHA =    15411375.0000                  RCHA =       42750.0000     RCH-1                            
                 CHD =           0.0000                   CHD =           0.0000     CHD-FROM-IBOUND                  

            TOTAL IN =    15411375.0000              TOTAL IN =       42750.0000

          OUT:                                     OUT:
          ----                                     ----
              STO-SS =    11507173.7138                STO-SS =       18480.4940     STORAGE                          
              STO-SY =      480409.1189                STO-SY =         760.9376     STORAGE                          
                 WEL =           0.0000                   WEL =           0.0000     WEL-1                            
                RCHA =           0.0000                  RCHA =           0.0000     RCH-1                            
                 CHD =     3423800.4363                   CHD =       23508.5685     CHD-FROM-IBOUND                  

           TOTAL OUT =    15411383.2689             TOTAL OUT =       42750.0000

            IN - OUT =          -8.2689              IN - OUT =      -4.1205E-05

 PERCENT DISCREPANCY =          -0.00     PERCENT DISCREPANCY =          -0.00




         TIME SUMMARY AT END OF TIME STEP    8 IN STRESS PERIOD    6
                    SECONDS     MINUTES      HOURS       DAYS        YEARS
                    -----------------------------------------------------------
   TIME STEP LENGTH 5.81680E+05  9694.7      161.58      6.7324     1.84323E-02
 STRESS PERIOD TIME 2.67840E+06  44640.      744.00      31.000     8.48734E-02
         TOTAL TIME 1.31328E+07 2.18880E+05  3648.0      152.00     0.41615    


end timestep


start timestep kper="7" kstp="1" mode="normal"


 OUTPUT CONTROL FOR STRESS PERIOD 7 IS REPEATED USING SETTINGS FROM A PREVIOUS STRESS PERIOD.


 STRESS PERIOD 7 IS TRANSIENT


 REUSING WELS FROM LAST STRESS PERIOD

                 RECHARGE =  0.5000000E-03

 REUSING CHDS FROM LAST STRESS PERIOD
 UBDSV1 SAVING     FLOW-JA-FACE ON UNIT   1015 AT TIME STEP      1, STRESS PERIOD      7
 UBDSV06 SAVING              WEL IN MODEL MUMODEL          PACKAGE MUMODEL         CONNECTED TO MODEL MUMODEL          PACKAGE WEL-1            ON UNIT   1015 AT TIME STEP      1, STRESS PERIOD      7
 UBDSV06 SAVING             RCHA IN MODEL MUMODEL          PACKAGE MUMODEL         CONNECTED TO MODEL MUMODEL          PACKAGE RCH-1            ON UNIT   1015 AT TIME STEP      1, STRESS PERIOD      7

 WEL PACKAGE (WEL-1) FLOW RATES   PERIOD      7   STEP        1
 -----------------------------------------------
   NUMBER   CELLID                    RATE      
 -----------------------------------------------
     1      (1,5,5)               0.0000000     
     2      (1,11,5)              0.0000000     
     3      (1,5,5)               0.0000000     
 -----------------------------------------------




 CHD PACKAGE (CHD-FROM-IBOUND) FLOW RATES   PERIOD      7   STEP        1
 -----------------------------------------------
   NUMBER   CELLID                    RATE      
 -----------------------------------------------
     1      (1,1,1)              -1305.6884     
     2      (1,1,2)              -1305.6849     
     3      (1,1,3)              -1305.6842     
     4      (1,1,4)              -1305.6855     
     5      (1,1,5)              -1305.6872     
     6      (1,1,6)              -1305.6887     
     7      (1,1,7)              -1305.6902     
     8      (1,1,8)              -1305.6922     
     9      (1,1,9)              -1305.6943     
     10     (1,21,1)             -1305.6932     
     11     (1,21,2)             -1305.6906     
     12     (1,21,3)             -1305.6887     
     13     (1,21,4)             -1305.6872     
     14     (1,21,5)             -1305.6854     
     15     (1,21,6)             -1305.6840     
     16     (1,21,7)             -1305.6839     
     17     (1,21,8)             -1305.6865     
     18     (1,21,9)             -1305.6923     
 -----------------------------------------------




 HEAD WILL BE SAVED ON UNIT 1016 AT END OF TIME STEP    1, STRESS PERIOD    7


  VOLUME BUDGET FOR ENTIRE MODEL AT END OF TIME STEP    1, STRESS PERIOD   7
  ---------------------------------------------------------------------------------------------------

     CUMULATIVE VOLUME      L**3       RATES FOR THIS TIME STEP      L**3/T          PACKAGE NAME    
     ------------------                 ------------------------                     ----------------

           IN:                                      IN:
           ---                                      ---
              STO-SS =        3695.5768                STO-SS =        2032.4545     STORAGE                          
              STO-SY =         172.6100                STO-SY =          94.9302     STORAGE                          
                 WEL =           0.0000                   WEL =           0.0000     WEL-1                            
                RCHA =    15450240.7921                  RCHA =       21375.0000     RCH-1                            
                 CHD =           0.0000                   CHD =           0.0000     CHD-FROM-IBOUND                  

            TOTAL IN =    15454108.9788              TOTAL IN =       23502.3847

          OUT:                                     OUT:
          ----                                     ----
              STO-SS =    11507173.7336                STO-SS =       1.0848E-02     STORAGE                          
              STO-SY =      480409.1196                STO-SY =       4.2475E-04     STORAGE                          
                 WEL =           0.0000                   WEL =           0.0000     WEL-1                            
                RCHA =           0.0000                  RCHA =           0.0000     RCH-1                            
                 CHD =     3466534.4200                   CHD =       23502.3874     CHD-FROM-IBOUND                  

           TOTAL OUT =    15454117.2732             TOTAL OUT =       23502.3987

            IN - OUT =          -8.2944              IN - OUT =      -1.3993E-02

 PERCENT DISCREPANCY =          -0.00     PERCENT DISCREPANCY =          -0.00




         TIME SUMMARY AT END OF TIME STEP    1 IN STRESS PERIOD    7
                    SECONDS     MINUTES      HOURS       DAYS        YEARS
                    -----------------------------------------------------------
   TIME STEP LENGTH 1.57100E+05  2618.3      43.639      1.8183     4.97819E-03
 STRESS PERIOD TIME 1.57100E+05  2618.3      43.639      1.8183     4.97819E-03
         TOTAL TIME 1.32899E+07 2.21498E+05  3691.6      153.82     0.42113    


end timestep


start timestep kper="7" kstp="2" mode="normal"

 UBDSV1 SAVING     FLOW-JA-FACE ON UNIT   1015 AT TIME STEP      2, STRESS PERIOD      7
 UBDSV06 SAVING              WEL IN MODEL MUMODEL          PACKAGE MUMODEL         CONNECTED TO MODEL MUMODEL          PACKAGE WEL-1            ON UNIT   1015 AT TIME STEP      2, STRESS PERIOD      7
 UBDSV06 SAVING             RCHA IN MODEL MUMODEL          PACKAGE MUMODEL         CONNECTED TO MODEL MUMODEL          PACKAGE RCH-1            ON UNIT   1015 AT TIME STEP      2, STRESS PERIOD      7

 WEL PACKAGE (WEL-1) FLOW RATES   PERIOD      7   STEP        2
 -----------------------------------------------
   NUMBER   CELLID                    RATE      
 -----------------------------------------------
     1      (1,5,5)               0.0000000     
     2      (1,11,5)              0.0000000     
     3      (1,5,5)               0.0000000     
 -----------------------------------------------




 CHD PACKAGE (CHD-FROM-IBOUND) FLOW RATES   PERIOD      7   STEP        2
 -----------------------------------------------
   NUMBER   CELLID                    RATE      
 -----------------------------------------------
     1      (1,1,1)              -1305.2696     
     2      (1,1,2)              -1305.2660     
     3      (1,1,3)              -1305.2654     
     4      (1,1,4)              -1305.2667     
     5      (1,1,5)              -1305.2683     
     6      (1,1,6)              -1305.2699     
     7      (1,1,7)              -1305.2714     
     8      (1,1,8)              -1305.2733     
     9      (1,1,9)              -1305.2754     
     10     (1,21,1)             -1305.2743     
     11     (1,21,2)             -1305.2718     
     12     (1,21,3)             -1305.2699     
     13     (1,21,4)             -1305.2683     
     14     (1,21,5)             -1305.2666     
     15     (1,21,6)             -1305.2652     
     16     (1,21,7)             -1305.2650     
     17     (1,21,8)             -1305.2677     
     18     (1,21,9)             -1305.2734     
 -----------------------------------------------




 HEAD WILL BE SAVED ON UNIT 1016 AT END OF TIME STEP    2, STRESS PERIOD    7


  VOLUME BUDGET FOR ENTIRE MODEL AT END OF TIME STEP    2, STRESS PERIOD   7
  ---------------------------------------------------------------------------------------------------

     CUMULATIVE VOLUME      L**3       RATES FOR THIS TIME STEP      L**3/T          PACKAGE NAME    
     ------------------                 ------------------------                     ----------------

           IN:                                      IN:
           ---                                      ---
              STO-SS =        8114.5785                STO-SS =        2025.2634     STORAGE                          
              STO-SY =         378.9752                STO-SY =          94.5788     STORAGE                          
                 WEL =           0.0000                   WEL =           0.0000     WEL-1                            
                RCHA =    15496879.7427                  RCHA =       21375.0000     RCH-1                            
                 CHD =           0.0000                   CHD =           0.0000     CHD-FROM-IBOUND                  

            TOTAL IN =    15505373.2963              TOTAL IN =       23494.8422

          OUT:                                     OUT:
          ----                                     ----
              STO-SS =    11507173.7560                STO-SS =       1.0269E-02     STORAGE                          
              STO-SY =      480409.1205                STO-SY =       4.0206E-04     STORAGE                          
                 WEL =           0.0000                   WEL =           0.0000     WEL-1                            
                RCHA =           0.0000                  RCHA =           0.0000     RCH-1                            
                 CHD =     3517798.7503                   CHD =       23494.8481     CHD-FROM-IBOUND                  

           TOTAL OUT =    15505381.6268             TOTAL OUT =       23494.8588

            IN - OUT =          -8.3305              IN - OUT =      -1.6556E-02

 PERCENT DISCREPANCY =          -0.00     PERCENT DISCREPANCY =          -0.00




         TIME SUMMARY AT END OF TIME STEP    2 IN STRESS PERIOD    7
                    SECONDS     MINUTES      HOURS       DAYS        YEARS
                    -----------------------------------------------------------
   TIME STEP LENGTH 1.88520E+05  3142.0      52.367      2.1819     5.97382E-03
 STRESS PERIOD TIME 3.45619E+05  5760.3      96.005      4.0002     1.09520E-02
         TOTAL TIME 1.34784E+07 2.24640E+05  3744.0      156.00     0.42711    


end timestep


start timestep kper="7" kstp="3" mode="normal"

 UBDSV1 SAVING     FLOW-JA-FACE ON UNIT   1015 AT TIME STEP      3, STRESS PERIOD      7
 UBDSV06 SAVING              WEL IN MODEL MUMODEL          PACKAGE MUMODEL         CONNECTED TO MODEL MUMODEL          PACKAGE WEL-1            ON UNIT   1015 AT TIME STEP      3, STRESS PERIOD      7
 UBDSV06 SAVING             RCHA IN MODEL MUMODEL          PACKAGE MUMODEL         CONNECTED TO MODEL MUMODEL          PACKAGE RCH-1            ON UNIT   1015 AT TIME STEP      3, STRESS PERIOD      7

 WEL PACKAGE (WEL-1) FLOW RATES   PERIOD      7   STEP        3
 -----------------------------------------------
   NUMBER   CELLID                    RATE      
 -----------------------------------------------
     1      (1,5,5)               0.0000000     
     2      (1,11,5)              0.0000000     
     3      (1,5,5)               0.0000000     
 -----------------------------------------------




 CHD PACKAGE (CHD-FROM-IBOUND) FLOW RATES   PERIOD      7   STEP        3
 -----------------------------------------------
   NUMBER   CELLID                    RATE      
 -----------------------------------------------
     1      (1,1,1)              -1304.7715     
     2      (1,1,2)              -1304.7680     
     3      (1,1,3)              -1304.7674     
     4      (1,1,4)              -1304.7686     
     5      (1,1,5)              -1304.7703     
     6      (1,1,6)              -1304.7718     
     7      (1,1,7)              -1304.7733     
     8      (1,1,8)              -1304.7752     
     9      (1,1,9)              -1304.7773     
     10     (1,21,1)             -1304.7762     
     11     (1,21,2)             -1304.7737     
     12     (1,21,3)             -1304.7718     
     13     (1,21,4)             -1304.7702     
     14     (1,21,5)             -1304.7686     
     15     (1,21,6)             -1304.7671     
     16     (1,21,7)             -1304.7670     
     17     (1,21,8)             -1304.7697     
     18     (1,21,9)             -1304.7754     
 -----------------------------------------------




 HEAD WILL BE SAVED ON UNIT 1016 AT END OF TIME STEP    3, STRESS PERIOD    7


  VOLUME BUDGET FOR ENTIRE MODEL AT END OF TIME STEP    3, STRESS PERIOD   7
  ---------------------------------------------------------------------------------------------------

     CUMULATIVE VOLUME      L**3       RATES FOR THIS TIME STEP      L**3/T          PACKAGE NAME    
     ------------------                 ------------------------                     ----------------

           IN:                                      IN:
           ---                                      ---
              STO-SS =       13394.9921                STO-SS =        2016.7128     STORAGE                          
              STO-SY =         625.5193                STO-SY =          94.1609     STORAGE                          
                 WEL =           0.0000                   WEL =           0.0000     WEL-1                            
                RCHA =    15552846.4833                  RCHA =       21375.0000     RCH-1                            
                 CHD =           0.0000                   CHD =           0.0000     CHD-FROM-IBOUND                  

            TOTAL IN =    15566866.9946              TOTAL IN =       23485.8737

          OUT:                                     OUT:
          ----                                     ----
              STO-SS =    11507173.7810                STO-SS =       9.5804E-03     STORAGE                          
              STO-SY =      480409.1215                STO-SY =       3.7511E-04     STORAGE                          
                 WEL =           0.0000                   WEL =           0.0000     WEL-1                            
                RCHA =           0.0000                  RCHA =           0.0000     RCH-1                            
                 CHD =     3579292.4738                   CHD =       23485.8833     CHD-FROM-IBOUND                  

           TOTAL OUT =    15566875.3763             TOTAL OUT =       23485.8932

            IN - OUT =          -8.3817              IN - OUT =      -1.9538E-02

 PERCENT DISCREPANCY =          -0.00     PERCENT DISCREPANCY =          -0.00




         TIME SUMMARY AT END OF TIME STEP    3 IN STRESS PERIOD    7
                    SECONDS     MINUTES      HOURS       DAYS        YEARS
                    -----------------------------------------------------------
   TIME STEP LENGTH 2.26223E+05  3770.4      62.840      2.6183     7.16859E-03
 STRESS PERIOD TIME 5.71843E+05  9530.7      158.85      6.6185     1.81206E-02
         TOTAL TIME 1.37046E+07 2.28411E+05  3806.8      158.62     0.43427    


end timestep


start timestep kper="7" kstp="4" mode="normal"

 UBDSV1 SAVING     FLOW-JA-FACE ON UNIT   1015 AT TIME STEP      4, STRESS PERIOD      7
 UBDSV06 SAVING              WEL IN MODEL MUMODEL          PACKAGE MUMODEL         CONNECTED TO MODEL MUMODEL          PACKAGE WEL-1            ON UNIT   1015 AT TIME STEP      4, STRESS PERIOD      7
 UBDSV06 SAVING             RCHA IN MODEL MUMODEL          PACKAGE MUMODEL         CONNECTED TO MODEL MUMODEL          PACKAGE RCH-1            ON UNIT   1015 AT TIME STEP      4, STRESS PERIOD      7

 WEL PACKAGE (WEL-1) FLOW RATES   PERIOD      7   STEP        4
 -----------------------------------------------
   NUMBER   CELLID                    RATE      
 -----------------------------------------------
     1      (1,5,5)               0.0000000     
     2      (1,11,5)              0.0000000     
     3      (1,5,5)               0.0000000     
 -----------------------------------------------




 CHD PACKAGE (CHD-FROM-IBOUND) FLOW RATES   PERIOD      7   STEP        4
 -----------------------------------------------
   NUMBER   CELLID                    RATE      
 -----------------------------------------------
     1      (1,1,1)              -1304.1803     
     2      (1,1,2)              -1304.1769     
     3      (1,1,3)              -1304.1762     
     4      (1,1,4)              -1304.1775     
     5      (1,1,5)              -1304.1791     
     6      (1,1,6)              -1304.1806     
     7      (1,1,7)              -1304.1821     
     8      (1,1,8)              -1304.1840     
     9      (1,1,9)              -1304.1861     
     10     (1,21,1)             -1304.1850     
     11     (1,21,2)             -1304.1825     
     12     (1,21,3)             -1304.1806     
     13     (1,21,4)             -1304.1791     
     14     (1,21,5)             -1304.1774     
     15     (1,21,6)             -1304.1760     
     16     (1,21,7)             -1304.1759     
     17     (1,21,8)             -1304.1786     
     18     (1,21,9)             -1304.1842     
 -----------------------------------------------




 HEAD WILL BE SAVED ON UNIT 1016 AT END OF TIME STEP    4, STRESS PERIOD    7


  VOLUME BUDGET FOR ENTIRE MODEL AT END OF TIME STEP    4, STRESS PERIOD   7
  ---------------------------------------------------------------------------------------------------

     CUMULATIVE VOLUME      L**3       RATES FOR THIS TIME STEP      L**3/T          PACKAGE NAME    
     ------------------                 ------------------------                     ----------------

           IN:                                      IN:
           ---                                      ---
              STO-SS =       19699.5996                STO-SS =        2006.5636     STORAGE                          
              STO-SY =         919.8138                STO-SY =          93.6649     STORAGE                          
                 WEL =           0.0000                   WEL =           0.0000     WEL-1                            
                RCHA =    15620006.5721                  RCHA =       21375.0000     RCH-1                            
                 CHD =           0.0000                   CHD =           0.0000     CHD-FROM-IBOUND                  

            TOTAL IN =    15640625.9855              TOTAL IN =       23475.2285

          OUT:                                     OUT:
          ----                                     ----
              STO-SS =    11507173.8086                STO-SS =       8.7635E-03     STORAGE                          
              STO-SY =      480409.1226                STO-SY =       3.4313E-04     STORAGE                          
                 WEL =           0.0000                   WEL =           0.0000     WEL-1                            
                RCHA =           0.0000                  RCHA =           0.0000     RCH-1                            
                 CHD =     3653051.5082                   CHD =       23475.2424     CHD-FROM-IBOUND                  

           TOTAL OUT =    15640634.4393             TOTAL OUT =       23475.2515

            IN - OUT =          -8.4538              IN - OUT =      -2.2973E-02

 PERCENT DISCREPANCY =          -0.00     PERCENT DISCREPANCY =          -0.00




         TIME SUMMARY AT END OF TIME STEP    4 IN STRESS PERIOD    7
                    SECONDS     MINUTES      HOURS       DAYS        YEARS
                    -----------------------------------------------------------
   TIME STEP LENGTH 2.71468E+05  4524.5      75.408      3.1420     8.60231E-03
 STRESS PERIOD TIME 8.43311E+05  14055.      234.25      9.7605     2.67229E-02
         TOTAL TIME 1.39761E+07 2.32935E+05  3882.3      161.76     0.44288    


end timestep


start timestep kper="7" kstp="5" mode="normal"

 UBDSV1 SAVING     FLOW-JA-FACE ON UNIT   1015 AT TIME STEP      5, STRESS PERIOD      7
 UBDSV06 SAVING              WEL IN MODEL MUMODEL          PACKAGE MUMODEL         CONNECTED TO MODEL MUMODEL          PACKAGE WEL-1            ON UNIT   1015 AT TIME STEP      5, STRESS PERIOD      7
 UBDSV06 SAVING             RCHA IN MODEL MUMODEL          PACKAGE MUMODEL         CONNECTED TO MODEL MUMODEL          PACKAGE RCH-1            ON UNIT   1015 AT TIME STEP      5, STRESS PERIOD      7

 WEL PACKAGE (WEL-1) FLOW RATES   PERIOD      7   STEP        5
 -----------------------------------------------
   NUMBER   CELLID                    RATE      
 -----------------------------------------------
     1      (1,5,5)               0.0000000     
     2      (1,11,5)              0.0000000     
     3      (1,5,5)               0.0000000     
 -----------------------------------------------




 CHD PACKAGE (CHD-FROM-IBOUND) FLOW RATES   PERIOD      7   STEP        5
 -----------------------------------------------
   NUMBER   CELLID                    RATE      
 -----------------------------------------------
     1      (1,1,1)              -1303.4801     
     2      (1,1,2)              -1303.4767     
     3      (1,1,3)              -1303.4761     
     4      (1,1,4)              -1303.4773     
     5      (1,1,5)              -1303.4789     
     6      (1,1,6)              -1303.4804     
     7      (1,1,7)              -1303.4819     
     8      (1,1,8)              -1303.4838     
     9      (1,1,9)              -1303.4859     
     10     (1,21,1)             -1303.4847     
     11     (1,21,2)             -1303.4823     
     12     (1,21,3)             -1303.4804     
     13     (1,21,4)             -1303.4789     
     14     (1,21,5)             -1303.4772     
     15     (1,21,6)             -1303.4759     
     16     (1,21,7)             -1303.4758     
     17     (1,21,8)             -1303.4784     
     18     (1,21,9)             -1303.4840     
 -----------------------------------------------




 HEAD WILL BE SAVED ON UNIT 1016 AT END OF TIME STEP    5, STRESS PERIOD    7


  VOLUME BUDGET FOR ENTIRE MODEL AT END OF TIME STEP    5, STRESS PERIOD   7
  ---------------------------------------------------------------------------------------------------

     CUMULATIVE VOLUME      L**3       RATES FOR THIS TIME STEP      L**3/T          PACKAGE NAME    
     ------------------                 ------------------------                     ----------------

           IN:                                      IN:
           ---                                      ---
              STO-SS =       27219.8044                STO-SS =        1994.5424     STORAGE                          
              STO-SY =        1270.7522                STO-SY =          93.0775     STORAGE                          
                 WEL =           0.0000                   WEL =           0.0000     WEL-1                            
                RCHA =    15700598.6786                  RCHA =       21375.0000     RCH-1                            
                 CHD =           0.0000                   CHD =           0.0000     CHD-FROM-IBOUND                  

            TOTAL IN =    15729089.2352              TOTAL IN =       23462.6199

          OUT:                                     OUT:
          ----                                     ----
              STO-SS =    11507173.8380                STO-SS =       7.7965E-03     STORAGE                          
              STO-SY =      480409.1237                STO-SY =       3.0526E-04     STORAGE                          
                 WEL =           0.0000                   WEL =           0.0000     WEL-1                            
                RCHA =           0.0000                  RCHA =           0.0000     RCH-1                            
                 CHD =     3741514.8288                   CHD =       23462.6387     CHD-FROM-IBOUND                  

           TOTAL OUT =    15729097.7905             TOTAL OUT =       23462.6468

            IN - OUT =          -8.5553              IN - OUT =      -2.6911E-02

 PERCENT DISCREPANCY =          -0.00     PERCENT DISCREPANCY =          -0.00




         TIME SUMMARY AT END OF TIME STEP    5 IN STRESS PERIOD    7
                    SECONDS     MINUTES      HOURS       DAYS        YEARS
                    -----------------------------------------------------------
   TIME STEP LENGTH 3.25762E+05  5429.4      90.489      3.7704     1.03228E-02
 STRESS PERIOD TIME 1.16907E+06  19485.      324.74      13.531     3.70457E-02
         TOTAL TIME 1.43019E+07 2.38365E+05  3972.7      165.53     0.45320    


end timestep


start timestep kper="7" kstp="6" mode="normal"

 UBDSV1 SAVING     FLOW-JA-FACE ON UNIT   1015 AT TIME STEP      6, STRESS PERIOD      7
 UBDSV06 SAVING              WEL IN MODEL MUMODEL          PACKAGE MUMODEL         CONNECTED TO MODEL MUMODEL          PACKAGE WEL-1            ON UNIT   1015 AT TIME STEP      6, STRESS PERIOD      7
 UBDSV06 SAVING             RCHA IN MODEL MUMODEL          PACKAGE MUMODEL         CONNECTED TO MODEL MUMODEL          PACKAGE RCH-1            ON UNIT   1015 AT TIME STEP      6, STRESS PERIOD      7

 WEL PACKAGE (WEL-1) FLOW RATES   PERIOD      7   STEP        6
 -----------------------------------------------
   NUMBER   CELLID                    RATE      
 -----------------------------------------------
     1      (1,5,5)               0.0000000     
     2      (1,11,5)              0.0000000     
     3      (1,5,5)               0.0000000     
 -----------------------------------------------




 CHD PACKAGE (CHD-FROM-IBOUND) FLOW RATES   PERIOD      7   STEP        6
 -----------------------------------------------
   NUMBER   CELLID                    RATE      
 -----------------------------------------------
     1      (1,1,1)              -1302.6529     
     2      (1,1,2)              -1302.6495     
     3      (1,1,3)              -1302.6488     
     4      (1,1,4)              -1302.6500     
     5      (1,1,5)              -1302.6516     
     6      (1,1,6)              -1302.6532     
     7      (1,1,7)              -1302.6546     
     8      (1,1,8)              -1302.6565     
     9      (1,1,9)              -1302.6585     
     10     (1,21,1)             -1302.6574     
     11     (1,21,2)             -1302.6550     
     12     (1,21,3)             -1302.6531     
     13     (1,21,4)             -1302.6516     
     14     (1,21,5)             -1302.6500     
     15     (1,21,6)             -1302.6486     
     16     (1,21,7)             -1302.6486     
     17     (1,21,8)             -1302.6513     
     18     (1,21,9)             -1302.6567     
 -----------------------------------------------




 HEAD WILL BE SAVED ON UNIT 1016 AT END OF TIME STEP    6, STRESS PERIOD    7


  VOLUME BUDGET FOR ENTIRE MODEL AT END OF TIME STEP    6, STRESS PERIOD   7
  ---------------------------------------------------------------------------------------------------

     CUMULATIVE VOLUME      L**3       RATES FOR THIS TIME STEP      L**3/T          PACKAGE NAME    
     ------------------                 ------------------------                     ----------------

           IN:                                      IN:
           ---                                      ---
              STO-SS =       36179.7918                STO-SS =        1980.3400     STORAGE                          
              STO-SY =        1688.7379                STO-SY =          92.3834     STORAGE                          
                 WEL =           0.0000                   WEL =           0.0000     WEL-1                            
                RCHA =    15797309.2065                  RCHA =       21375.0000     RCH-1                            
                 CHD =           0.0000                   CHD =           0.0000     CHD-FROM-IBOUND                  

            TOTAL IN =    15835177.7363              TOTAL IN =       23447.7234

          OUT:                                     OUT:
          ----                                     ----
              STO-SS =    11507173.8681                STO-SS =       6.6552E-03     STORAGE                          
              STO-SY =      480409.1249                STO-SY =       2.6059E-04     STORAGE                          
                 WEL =           0.0000                   WEL =           0.0000     WEL-1                            
                RCHA =           0.0000                  RCHA =           0.0000     RCH-1                            
                 CHD =     3847603.4406                   CHD =       23447.7479     CHD-FROM-IBOUND                  

           TOTAL OUT =    15835186.4336             TOTAL OUT =       23447.7548

            IN - OUT =          -8.6973              IN - OUT =      -3.1388E-02

 PERCENT DISCREPANCY =          -0.00     PERCENT DISCREPANCY =          -0.00




         TIME SUMMARY AT END OF TIME STEP    6 IN STRESS PERIOD    7
                    SECONDS     MINUTES      HOURS       DAYS        YEARS
                    -----------------------------------------------------------
   TIME STEP LENGTH 3.90914E+05  6515.2      108.59      4.5245     1.23873E-02
 STRESS PERIOD TIME 1.55999E+06  26000.      433.33      18.055     4.94330E-02
         TOTAL TIME 1.46928E+07 2.44880E+05  4081.3      170.06     0.46559    


end timestep


start timestep kper="7" kstp="7" mode="normal"

 UBDSV1 SAVING     FLOW-JA-FACE ON UNIT   1015 AT TIME STEP      7, STRESS PERIOD      7
 UBDSV06 SAVING              WEL IN MODEL MUMODEL          PACKAGE MUMODEL         CONNECTED TO MODEL MUMODEL          PACKAGE WEL-1            ON UNIT   1015 AT TIME STEP      7, STRESS PERIOD      7
 UBDSV06 SAVING             RCHA IN MODEL MUMODEL          PACKAGE MUMODEL         CONNECTED TO MODEL MUMODEL          PACKAGE RCH-1            ON UNIT   1015 AT TIME STEP      7, STRESS PERIOD      7

 WEL PACKAGE (WEL-1) FLOW RATES   PERIOD      7   STEP        7
 -----------------------------------------------
   NUMBER   CELLID                    RATE      
 -----------------------------------------------
     1      (1,5,5)               0.0000000     
     2      (1,11,5)              0.0000000     
     3      (1,5,5)               0.0000000     
 -----------------------------------------------




 CHD PACKAGE (CHD-FROM-IBOUND) FLOW RATES   PERIOD      7   STEP        7
 -----------------------------------------------
   NUMBER   CELLID                    RATE      
 -----------------------------------------------
     1      (1,1,1)              -1301.6784     
     2      (1,1,2)              -1301.6751     
     3      (1,1,3)              -1301.6744     
     4      (1,1,4)              -1301.6755     
     5      (1,1,5)              -1301.6772     
     6      (1,1,6)              -1301.6787     
     7      (1,1,7)              -1301.6801     
     8      (1,1,8)              -1301.6820     
     9      (1,1,9)              -1301.6840     
     10     (1,21,1)             -1301.6828     
     11     (1,21,2)             -1301.6805     
     12     (1,21,3)             -1301.6786     
     13     (1,21,4)             -1301.6771     
     14     (1,21,5)             -1301.6755     
     15     (1,21,6)             -1301.6742     
     16     (1,21,7)             -1301.6742     
     17     (1,21,8)             -1301.6769     
     18     (1,21,9)             -1301.6822     
 -----------------------------------------------




 HEAD WILL BE SAVED ON UNIT 1016 AT END OF TIME STEP    7, STRESS PERIOD    7


  VOLUME BUDGET FOR ENTIRE MODEL AT END OF TIME STEP    7, STRESS PERIOD   7
  ---------------------------------------------------------------------------------------------------

     CUMULATIVE VOLUME      L**3       RATES FOR THIS TIME STEP      L**3/T          PACKAGE NAME    
     ------------------                 ------------------------                     ----------------

           IN:                                      IN:
           ---                                      ---
              STO-SS =       46840.9468                STO-SS =        1963.6107     STORAGE                          
              STO-SY =        2185.8820                STO-SY =          91.5658     STORAGE                          
                 WEL =           0.0000                   WEL =           0.0000     WEL-1                            
                RCHA =    15913361.8399                  RCHA =       21375.0000     RCH-1                            
                 CHD =           0.0000                   CHD =           0.0000     CHD-FROM-IBOUND                  

            TOTAL IN =    15962388.6687              TOTAL IN =       23430.1765

          OUT:                                     OUT:
          ----                                     ----
              STO-SS =    11507173.8975                STO-SS =       5.4252E-03     STORAGE                          
              STO-SY =      480409.1260                STO-SY =       2.1242E-04     STORAGE                          
                 WEL =           0.0000                   WEL =           0.0000     WEL-1                            
                RCHA =           0.0000                  RCHA =           0.0000     RCH-1                            
                 CHD =     3974814.5401                   CHD =       23430.2072     CHD-FROM-IBOUND                  

           TOTAL OUT =    15962397.5637             TOTAL OUT =       23430.2129

            IN - OUT =          -8.8950              IN - OUT =      -3.6414E-02

 PERCENT DISCREPANCY =          -0.00     PERCENT DISCREPANCY =          -0.00




         TIME SUMMARY AT END OF TIME STEP    7 IN STRESS PERIOD    7
                    SECONDS     MINUTES      HOURS       DAYS        YEARS
                    -----------------------------------------------------------
   TIME STEP LENGTH 4.69097E+05  7818.3      130.30      5.4294     1.48648E-02
 STRESS PERIOD TIME 2.02908E+06  33818.      563.63      23.485     6.42978E-02
         TOTAL TIME 1.51619E+07 2.52698E+05  4211.6      175.48     0.48045    


end timestep


start timestep kper="7" kstp="8" mode="normal"

 UBDSV1 SAVING     FLOW-JA-FACE ON UNIT   1015 AT TIME STEP      8, STRESS PERIOD      7
 UBDSV06 SAVING              WEL IN MODEL MUMODEL          PACKAGE MUMODEL         CONNECTED TO MODEL MUMODEL          PACKAGE WEL-1            ON UNIT   1015 AT TIME STEP      8, STRESS PERIOD      7
 UBDSV06 SAVING             RCHA IN MODEL MUMODEL          PACKAGE MUMODEL         CONNECTED TO MODEL MUMODEL          PACKAGE RCH-1            ON UNIT   1015 AT TIME STEP      8, STRESS PERIOD      7

 WEL PACKAGE (WEL-1) FLOW RATES   PERIOD      7   STEP        8
 -----------------------------------------------
   NUMBER   CELLID                    RATE      
 -----------------------------------------------
     1      (1,5,5)               0.0000000     
     2      (1,11,5)              0.0000000     
     3      (1,5,5)               0.0000000     
 -----------------------------------------------




 CHD PACKAGE (CHD-FROM-IBOUND) FLOW RATES   PERIOD      7   STEP        8
 -----------------------------------------------
   NUMBER   CELLID                    RATE      
 -----------------------------------------------
     1      (1,1,1)              -1300.5024     
     2      (1,1,2)              -1300.4991     
     3      (1,1,3)              -1300.4984     
     4      (1,1,4)              -1300.4996     
     5      (1,1,5)              -1300.5011     
     6      (1,1,6)              -1300.5026     
     7      (1,1,7)              -1300.5041     
     8      (1,1,8)              -1300.5059     
     9      (1,1,9)              -1300.5079     
     10     (1,21,1)             -1300.5067     
     11     (1,21,2)             -1300.5044     
     12     (1,21,3)             -1300.5026     
     13     (1,21,4)             -1300.5011     
     14     (1,21,5)             -1300.4995     
     15     (1,21,6)             -1300.4983     
     16     (1,21,7)             -1300.4983     
     17     (1,21,8)             -1300.5010     
     18     (1,21,9)             -1300.5062     
 -----------------------------------------------




 HEAD WILL BE SAVED ON UNIT 1016 AT END OF TIME STEP    8, STRESS PERIOD    7


  VOLUME BUDGET FOR ENTIRE MODEL AT END OF TIME STEP    8, STRESS PERIOD   7
  ---------------------------------------------------------------------------------------------------

     CUMULATIVE VOLUME      L**3       RATES FOR THIS TIME STEP      L**3/T          PACKAGE NAME    
     ------------------                 ------------------------                     ----------------

           IN:                                      IN:
           ---                                      ---
              STO-SS =       59503.0484                STO-SS =        1943.4603     STORAGE                          
              STO-SY =        2776.0539                STO-SY =          90.5834     STORAGE                          
                 WEL =           0.0000                   WEL =           0.0000     WEL-1                            
                RCHA =    16052625.0000                  RCHA =       21375.0000     RCH-1                            
                 CHD =           0.0000                   CHD =           0.0000     CHD-FROM-IBOUND                  

            TOTAL IN =    16114904.1023              TOTAL IN =       23409.0437

          OUT:                                     OUT:
          ----                                     ----
              STO-SS =    11507173.9247                STO-SS =       4.1678E-03     STORAGE                          
              STO-SY =      480409.1271                STO-SY =       1.6316E-04     STORAGE                          
                 WEL =           0.0000                   WEL =           0.0000     WEL-1                            
                RCHA =           0.0000                  RCHA =           0.0000     RCH-1                            
                 CHD =     4127329.9447                   CHD =       23409.0392     CHD-FROM-IBOUND                  

           TOTAL OUT =    16114912.9965             TOTAL OUT =       23409.0435

            IN - OUT =          -8.8942              IN - OUT =       1.2834E-04

 PERCENT DISCREPANCY =          -0.00     PERCENT DISCREPANCY =           0.00




         TIME SUMMARY AT END OF TIME STEP    8 IN STRESS PERIOD    7
                    SECONDS     MINUTES      HOURS       DAYS        YEARS
                    -----------------------------------------------------------
   TIME STEP LENGTH 5.62916E+05  9381.9      156.37      6.5152     1.78377E-02
 STRESS PERIOD TIME 2.59200E+06  43200.      720.00      30.000     8.21355E-02
         TOTAL TIME 1.57248E+07 2.62080E+05  4368.0      182.00     0.49829    


end timestep


start timestep kper="8" kstp="1" mode="normal"


 OUTPUT CONTROL FOR STRESS PERIOD 8 IS REPEATED USING SETTINGS FROM A PREVIOUS STRESS PERIOD.


 STRESS PERIOD 8 IS TRANSIENT


 REUSING WELS FROM LAST STRESS PERIOD

                 RECHARGE =  0.5000000E-04

 REUSING CHDS FROM LAST STRESS PERIOD
 UBDSV1 SAVING     FLOW-JA-FACE ON UNIT   1015 AT TIME STEP      1, STRESS PERIOD      8
 UBDSV06 SAVING              WEL IN MODEL MUMODEL          PACKAGE MUMODEL         CONNECTED TO MODEL MUMODEL          PACKAGE WEL-1            ON UNIT   1015 AT TIME STEP      1, STRESS PERIOD      8
 UBDSV06 SAVING             RCHA IN MODEL MUMODEL          PACKAGE MUMODEL         CONNECTED TO MODEL MUMODEL          PACKAGE RCH-1            ON UNIT   1015 AT TIME STEP      1, STRESS PERIOD      8

 WEL PACKAGE (WEL-1) FLOW RATES   PERIOD      8   STEP        1
 -----------------------------------------------
   NUMBER   CELLID                    RATE      
 -----------------------------------------------
     1      (1,5,5)               0.0000000     
     2      (1,11,5)              0.0000000     
     3      (1,5,5)               0.0000000     
 -----------------------------------------------




 CHD PACKAGE (CHD-FROM-IBOUND) FLOW RATES   PERIOD      8   STEP        1
 -----------------------------------------------
   NUMBER   CELLID                    RATE      
 -----------------------------------------------
     1      (1,1,1)              -1299.7924     
     2      (1,1,2)              -1299.7892     
     3      (1,1,3)              -1299.7885     
     4      (1,1,4)              -1299.7896     
     5      (1,1,5)              -1299.7912     
     6      (1,1,6)              -1299.7927     
     7      (1,1,7)              -1299.7942     
     8      (1,1,8)              -1299.7960     
     9      (1,1,9)              -1299.7980     
     10     (1,21,1)             -1299.7967     
     11     (1,21,2)             -1299.7945     
     12     (1,21,3)             -1299.7927     
     13     (1,21,4)             -1299.7912     
     14     (1,21,5)             -1299.7896     
     15     (1,21,6)             -1299.7884     
     16     (1,21,7)             -1299.7884     
     17     (1,21,8)             -1299.7911     
     18     (1,21,9)             -1299.7963     
 -----------------------------------------------




 HEAD WILL BE SAVED ON UNIT 1016 AT END OF TIME STEP    1, STRESS PERIOD    8


  VOLUME BUDGET FOR ENTIRE MODEL AT END OF TIME STEP    1, STRESS PERIOD   8
  ---------------------------------------------------------------------------------------------------

     CUMULATIVE VOLUME      L**3       RATES FOR THIS TIME STEP      L**3/T          PACKAGE NAME    
     ------------------                 ------------------------                     ----------------

           IN:                                      IN:
           ---                                      ---
              STO-SS =       97828.7585                STO-SS =       20398.0368     STORAGE                          
              STO-SY =        4392.9292                STO-SY =         860.5472     STORAGE                          
                 WEL =           0.0000                   WEL =           0.0000     WEL-1                            
                RCHA =    16056641.1319                  RCHA =        2137.5000     RCH-1                            
                 CHD =           0.0000                   CHD =           0.0000     CHD-FROM-IBOUND                  

            TOTAL IN =    16158862.8196              TOTAL IN =       23396.0840

          OUT:                                     OUT:
          ----                                     ----
              STO-SS =    11507173.9247                STO-SS =           0.0000     STORAGE                          
              STO-SY =      480409.1271                STO-SY =           0.0000     STORAGE                          
                 WEL =           0.0000                   WEL =           0.0000     WEL-1                            
                RCHA =           0.0000                  RCHA =           0.0000     RCH-1                            
                 CHD =     4171288.9939                   CHD =       23396.2607     CHD-FROM-IBOUND                  

           TOTAL OUT =    16158872.0457             TOTAL OUT =       23396.2607

            IN - OUT =          -9.2262              IN - OUT =          -0.1767

 PERCENT DISCREPANCY =          -0.00     PERCENT DISCREPANCY =          -0.00




         TIME SUMMARY AT END OF TIME STEP    1 IN STRESS PERIOD    8
                    SECONDS     MINUTES      HOURS       DAYS        YEARS
                    -----------------------------------------------------------
   TIME STEP LENGTH 1.62336E+05  2705.6      45.093      1.8789     5.14413E-03
 STRESS PERIOD TIME 1.62336E+05  2705.6      45.093      1.8789     5.14413E-03
         TOTAL TIME 1.58871E+07 2.64786E+05  4413.1      183.88     0.50343    


end timestep


start timestep kper="8" kstp="2" mode="normal"

 UBDSV1 SAVING     FLOW-JA-FACE ON UNIT   1015 AT TIME STEP      2, STRESS PERIOD      8
 UBDSV06 SAVING              WEL IN MODEL MUMODEL          PACKAGE MUMODEL         CONNECTED TO MODEL MUMODEL          PACKAGE WEL-1            ON UNIT   1015 AT TIME STEP      2, STRESS PERIOD      8
 UBDSV06 SAVING             RCHA IN MODEL MUMODEL          PACKAGE MUMODEL         CONNECTED TO MODEL MUMODEL          PACKAGE RCH-1            ON UNIT   1015 AT TIME STEP      2, STRESS PERIOD      8

 WEL PACKAGE (WEL-1) FLOW RATES   PERIOD      8   STEP        2
 -----------------------------------------------
   NUMBER   CELLID                    RATE      
 -----------------------------------------------
     1      (1,5,5)               0.0000000     
     2      (1,11,5)              0.0000000     
     3      (1,5,5)               0.0000000     
 -----------------------------------------------




 CHD PACKAGE (CHD-FROM-IBOUND) FLOW RATES   PERIOD      8   STEP        2
 -----------------------------------------------
   NUMBER   CELLID                    RATE      
 -----------------------------------------------
     1      (1,1,1)              -1298.9250     
     2      (1,1,2)              -1298.9219     
     3      (1,1,3)              -1298.9211     
     4      (1,1,4)              -1298.9223     
     5      (1,1,5)              -1298.9238     
     6      (1,1,6)              -1298.9253     
     7      (1,1,7)              -1298.9268     
     8      (1,1,8)              -1298.9286     
     9      (1,1,9)              -1298.9305     
     10     (1,21,1)             -1298.9293     
     11     (1,21,2)             -1298.9270     
     12     (1,21,3)             -1298.9253     
     13     (1,21,4)             -1298.9238     
     14     (1,21,5)             -1298.9222     
     15     (1,21,6)             -1298.9210     
     16     (1,21,7)             -1298.9211     
     17     (1,21,8)             -1298.9237     
     18     (1,21,9)             -1298.9289     
 -----------------------------------------------




 HEAD WILL BE SAVED ON UNIT 1016 AT END OF TIME STEP    2, STRESS PERIOD    8


  VOLUME BUDGET FOR ENTIRE MODEL AT END OF TIME STEP    2, STRESS PERIOD   8
  ---------------------------------------------------------------------------------------------------

     CUMULATIVE VOLUME      L**3       RATES FOR THIS TIME STEP      L**3/T          PACKAGE NAME    
     ------------------                 ------------------------                     ----------------

           IN:                                      IN:
           ---                                      ---
              STO-SS =      143785.9076                STO-SS =       20383.0887     STORAGE                          
              STO-SY =        6331.6019                STO-SY =         859.8474     STORAGE                          
                 WEL =           0.0000                   WEL =           0.0000     WEL-1                            
                RCHA =    16061460.4901                  RCHA =        2137.5000     RCH-1                            
                 CHD =           0.0000                   CHD =           0.0000     CHD-FROM-IBOUND                  

            TOTAL IN =    16211577.9996              TOTAL IN =       23380.4362

          OUT:                                     OUT:
          ----                                     ----
              STO-SS =    11507173.9247                STO-SS =           0.0000     STORAGE                          
              STO-SY =      480409.1271                STO-SY =           0.0000     STORAGE                          
                 WEL =           0.0000                   WEL =           0.0000     WEL-1                            
                RCHA =           0.0000                  RCHA =           0.0000     RCH-1                            
                 CHD =     4224004.6505                   CHD =       23380.6475     CHD-FROM-IBOUND                  

           TOTAL OUT =    16211587.7023             TOTAL OUT =       23380.6475

            IN - OUT =          -9.7027              IN - OUT =          -0.2114

 PERCENT DISCREPANCY =          -0.00     PERCENT DISCREPANCY =          -0.00




         TIME SUMMARY AT END OF TIME STEP    2 IN STRESS PERIOD    8
                    SECONDS     MINUTES      HOURS       DAYS        YEARS
                    -----------------------------------------------------------
   TIME STEP LENGTH 1.94804E+05  3246.7      54.112      2.2547     6.17295E-03
 STRESS PERIOD TIME 3.57140E+05  5952.3      99.206      4.1336     1.13171E-02
         TOTAL TIME 1.60819E+07 2.68032E+05  4467.2      186.13     0.50961    


end timestep


start timestep kper="8" kstp="3" mode="normal"

 UBDSV1 SAVING     FLOW-JA-FACE ON UNIT   1015 AT TIME STEP      3, STRESS PERIOD      8
 UBDSV06 SAVING              WEL IN MODEL MUMODEL          PACKAGE MUMODEL         CONNECTED TO MODEL MUMODEL          PACKAGE WEL-1            ON UNIT   1015 AT TIME STEP      3, STRESS PERIOD      8
 UBDSV06 SAVING             RCHA IN MODEL MUMODEL          PACKAGE MUMODEL         CONNECTED TO MODEL MUMODEL          PACKAGE RCH-1            ON UNIT   1015 AT TIME STEP      3, STRESS PERIOD      8

 WEL PACKAGE (WEL-1) FLOW RATES   PERIOD      8   STEP        3
 -----------------------------------------------
   NUMBER   CELLID                    RATE      
 -----------------------------------------------
     1      (1,5,5)               0.0000000     
     2      (1,11,5)              0.0000000     
     3      (1,5,5)               0.0000000     
 -----------------------------------------------




 CHD PACKAGE (CHD-FROM-IBOUND) FLOW RATES   PERIOD      8   STEP        3
 -----------------------------------------------
   NUMBER   CELLID                    RATE      
 -----------------------------------------------
     1      (1,1,1)              -1297.8913     
     2      (1,1,2)              -1297.8882     
     3      (1,1,3)              -1297.8874     
     4      (1,1,4)              -1297.8885     
     5      (1,1,5)              -1297.8901     
     6      (1,1,6)              -1297.8916     
     7      (1,1,7)              -1297.8930     
     8      (1,1,8)              -1297.8948     
     9      (1,1,9)              -1297.8968     
     10     (1,21,1)             -1297.8955     
     11     (1,21,2)             -1297.8933     
     12     (1,21,3)             -1297.8915     
     13     (1,21,4)             -1297.8901     
     14     (1,21,5)             -1297.8885     
     15     (1,21,6)             -1297.8873     
     16     (1,21,7)             -1297.8874     
     17     (1,21,8)             -1297.8900     
     18     (1,21,9)             -1297.8952     
 -----------------------------------------------




 HEAD WILL BE SAVED ON UNIT 1016 AT END OF TIME STEP    3, STRESS PERIOD    8


  VOLUME BUDGET FOR ENTIRE MODEL AT END OF TIME STEP    3, STRESS PERIOD   8
  ---------------------------------------------------------------------------------------------------

     CUMULATIVE VOLUME      L**3       RATES FOR THIS TIME STEP      L**3/T          PACKAGE NAME    
     ------------------                 ------------------------                     ----------------

           IN:                                      IN:
           ---                                      ---
              STO-SS =      198886.2876                STO-SS =       20365.2742     STORAGE                          
              STO-SY =        8655.7531                STO-SY =         859.0136     STORAGE                          
                 WEL =           0.0000                   WEL =           0.0000     WEL-1                            
                RCHA =    16067243.7199                  RCHA =        2137.5000     RCH-1                            
                 CHD =           0.0000                   CHD =           0.0000     CHD-FROM-IBOUND                  

            TOTAL IN =    16274785.7607              TOTAL IN =       23361.7879

          OUT:                                     OUT:
          ----                                     ----
              STO-SS =    11507173.9247                STO-SS =           0.0000     STORAGE                          
              STO-SY =      480409.1271                STO-SY =           0.0000     STORAGE                          
                 WEL =           0.0000                   WEL =           0.0000     WEL-1                            
                RCHA =           0.0000                  RCHA =           0.0000     RCH-1                            
                 CHD =     4287213.0953                   CHD =       23362.0406     CHD-FROM-IBOUND                  

           TOTAL OUT =    16274796.1471             TOTAL OUT =       23362.0406

            IN - OUT =         -10.3865              IN - OUT =          -0.2527

 PERCENT DISCREPANCY =          -0.00     PERCENT DISCREPANCY =          -0.00




         TIME SUMMARY AT END OF TIME STEP    3 IN STRESS PERIOD    8
                    SECONDS     MINUTES      HOURS       DAYS        YEARS
                    -----------------------------------------------------------
   TIME STEP LENGTH 2.33764E+05  3896.1      64.935      2.7056     7.40754E-03
 STRESS PERIOD TIME 5.90904E+05  9848.4      164.14      6.8392     1.87246E-02
         TOTAL TIME 1.63157E+07 2.71928E+05  4532.1      188.84     0.51701    


end timestep


start timestep kper="8" kstp="4" mode="normal"

 UBDSV1 SAVING     FLOW-JA-FACE ON UNIT   1015 AT TIME STEP      4, STRESS PERIOD      8
 UBDSV06 SAVING              WEL IN MODEL MUMODEL          PACKAGE MUMODEL         CONNECTED TO MODEL MUMODEL          PACKAGE WEL-1            ON UNIT   1015 AT TIME STEP      4, STRESS PERIOD      8
 UBDSV06 SAVING             RCHA IN MODEL MUMODEL          PACKAGE MUMODEL         CONNECTED TO MODEL MUMODEL          PACKAGE RCH-1            ON UNIT   1015 AT TIME STEP      4, STRESS PERIOD      8

 WEL PACKAGE (WEL-1) FLOW RATES   PERIOD      8   STEP        4
 -----------------------------------------------
   NUMBER   CELLID                    RATE      
 -----------------------------------------------
     1      (1,5,5)               0.0000000     
     2      (1,11,5)              0.0000000     
     3      (1,5,5)               0.0000000     
 -----------------------------------------------




 CHD PACKAGE (CHD-FROM-IBOUND) FLOW RATES   PERIOD      8   STEP        4
 -----------------------------------------------
   NUMBER   CELLID                    RATE      
 -----------------------------------------------
     1      (1,1,1)              -1296.6264     
     2      (1,1,2)              -1296.6233     
     3      (1,1,3)              -1296.6226     
     4      (1,1,4)              -1296.6237     
     5      (1,1,5)              -1296.6252     
     6      (1,1,6)              -1296.6267     
     7      (1,1,7)              -1296.6281     
     8      (1,1,8)              -1296.6299     
     9      (1,1,9)              -1296.6319     
     10     (1,21,1)             -1296.6306     
     11     (1,21,2)             -1296.6284     
     12     (1,21,3)             -1296.6266     
     13     (1,21,4)             -1296.6252     
     14     (1,21,5)             -1296.6236     
     15     (1,21,6)             -1296.6224     
     16     (1,21,7)             -1296.6226     
     17     (1,21,8)             -1296.6252     
     18     (1,21,9)             -1296.6303     
 -----------------------------------------------




 HEAD WILL BE SAVED ON UNIT 1016 AT END OF TIME STEP    4, STRESS PERIOD    8


  VOLUME BUDGET FOR ENTIRE MODEL AT END OF TIME STEP    4, STRESS PERIOD   8
  ---------------------------------------------------------------------------------------------------

     CUMULATIVE VOLUME      L**3       RATES FOR THIS TIME STEP      L**3/T          PACKAGE NAME    
     ------------------                 ------------------------                     ----------------

           IN:                                      IN:
           ---                                      ---
              STO-SS =      264936.9037                STO-SS =       20343.7633     STORAGE                          
              STO-SY =       11441.4746                STO-SY =         858.0095     STORAGE                          
                 WEL =           0.0000                   WEL =           0.0000     WEL-1                            
                RCHA =    16074183.5958                  RCHA =        2137.5000     RCH-1                            
                 CHD =           0.0000                   CHD =           0.0000     CHD-FROM-IBOUND                  

            TOTAL IN =    16350561.9740              TOTAL IN =       23339.2729

          OUT:                                     OUT:
          ----                                     ----
              STO-SS =    11507173.9247                STO-SS =           0.0000     STORAGE                          
              STO-SY =      480409.1271                STO-SY =           0.0000     STORAGE                          
                 WEL =           0.0000                   WEL =           0.0000     WEL-1                            
                RCHA =           0.0000                  RCHA =           0.0000     RCH-1                            
                 CHD =     4362989.3086                   CHD =       23339.2729     CHD-FROM-IBOUND                  

           TOTAL OUT =    16350572.3604             TOTAL OUT =       23339.2729

            IN - OUT =         -10.3864              IN - OUT =       1.9657E-05

 PERCENT DISCREPANCY =          -0.00     PERCENT DISCREPANCY =           0.00




         TIME SUMMARY AT END OF TIME STEP    4 IN STRESS PERIOD    8
                    SECONDS     MINUTES      HOURS       DAYS        YEARS
                    -----------------------------------------------------------
   TIME STEP LENGTH 2.80517E+05  4675.3      77.921      3.2467     8.88905E-03
 STRESS PERIOD TIME 8.71421E+05  14524.      242.06      10.086     2.76137E-02
         TOTAL TIME 1.65962E+07 2.76604E+05  4610.1      192.09     0.52590    


end timestep


start timestep kper="8" kstp="5" mode="normal"

 UBDSV1 SAVING     FLOW-JA-FACE ON UNIT   1015 AT TIME STEP      5, STRESS PERIOD      8
 UBDSV06 SAVING              WEL IN MODEL MUMODEL          PACKAGE MUMODEL         CONNECTED TO MODEL MUMODEL          PACKAGE WEL-1            ON UNIT   1015 AT TIME STEP      5, STRESS PERIOD      8
 UBDSV06 SAVING             RCHA IN MODEL MUMODEL          PACKAGE MUMODEL         CONNECTED TO MODEL MUMODEL          PACKAGE RCH-1            ON UNIT   1015 AT TIME STEP      5, STRESS PERIOD      8

 WEL PACKAGE (WEL-1) FLOW RATES   PERIOD      8   STEP        5
 -----------------------------------------------
   NUMBER   CELLID                    RATE      
 -----------------------------------------------
     1      (1,5,5)               0.0000000     
     2      (1,11,5)              0.0000000     
     3      (1,5,5)               0.0000000     
 -----------------------------------------------




 CHD PACKAGE (CHD-FROM-IBOUND) FLOW RATES   PERIOD      8   STEP        5
 -----------------------------------------------
   NUMBER   CELLID                    RATE      
 -----------------------------------------------
     1      (1,1,1)              -1295.1579     
     2      (1,1,2)              -1295.1548     
     3      (1,1,3)              -1295.1541     
     4      (1,1,4)              -1295.1551     
     5      (1,1,5)              -1295.1567     
     6      (1,1,6)              -1295.1581     
     7      (1,1,7)              -1295.1596     
     8      (1,1,8)              -1295.1614     
     9      (1,1,9)              -1295.1633     
     10     (1,21,1)             -1295.1620     
     11     (1,21,2)             -1295.1598     
     12     (1,21,3)             -1295.1581     
     13     (1,21,4)             -1295.1566     
     14     (1,21,5)             -1295.1551     
     15     (1,21,6)             -1295.1539     
     16     (1,21,7)             -1295.1541     
     17     (1,21,8)             -1295.1567     
     18     (1,21,9)             -1295.1617     
 -----------------------------------------------




 HEAD WILL BE SAVED ON UNIT 1016 AT END OF TIME STEP    5, STRESS PERIOD    8


  VOLUME BUDGET FOR ENTIRE MODEL AT END OF TIME STEP    5, STRESS PERIOD   8
  ---------------------------------------------------------------------------------------------------

     CUMULATIVE VOLUME      L**3       RATES FOR THIS TIME STEP      L**3/T          PACKAGE NAME    
     ------------------                 ------------------------                     ----------------

           IN:                                      IN:
           ---                                      ---
              STO-SS =      344099.2546                STO-SS =       20318.5101     STORAGE                          
              STO-SY =       14779.7401                STO-SY =         856.8288     STORAGE                          
                 WEL =           0.0000                   WEL =           0.0000     WEL-1                            
                RCHA =    16082511.4468                  RCHA =        2137.5000     RCH-1                            
                 CHD =           0.0000                   CHD =           0.0000     CHD-FROM-IBOUND                  

            TOTAL IN =    16441390.4415              TOTAL IN =       23312.8389

          OUT:                                     OUT:
          ----                                     ----
              STO-SS =    11507173.9247                STO-SS =           0.0000     STORAGE                          
              STO-SY =      480409.1271                STO-SY =           0.0000     STORAGE                          
                 WEL =           0.0000                   WEL =           0.0000     WEL-1                            
                RCHA =           0.0000                  RCHA =           0.0000     RCH-1                            
                 CHD =     4453817.7759                   CHD =       23312.8389     CHD-FROM-IBOUND                  

           TOTAL OUT =    16441400.8277             TOTAL OUT =       23312.8389

            IN - OUT =         -10.3863              IN - OUT =       3.6633E-05

 PERCENT DISCREPANCY =          -0.00     PERCENT DISCREPANCY =           0.00




         TIME SUMMARY AT END OF TIME STEP    5 IN STRESS PERIOD    8
                    SECONDS     MINUTES      HOURS       DAYS        YEARS
                    -----------------------------------------------------------
   TIME STEP LENGTH 3.36621E+05  5610.3      93.506      3.8961     1.06669E-02
 STRESS PERIOD TIME 1.20804E+06  20134.      335.57      13.982     3.82805E-02
         TOTAL TIME 1.69328E+07 2.82214E+05  4703.6      195.98     0.53657    


end timestep


start timestep kper="8" kstp="6" mode="normal"

 UBDSV1 SAVING     FLOW-JA-FACE ON UNIT   1015 AT TIME STEP      6, STRESS PERIOD      8
 UBDSV06 SAVING              WEL IN MODEL MUMODEL          PACKAGE MUMODEL         CONNECTED TO MODEL MUMODEL          PACKAGE WEL-1            ON UNIT   1015 AT TIME STEP      6, STRESS PERIOD      8
 UBDSV06 SAVING             RCHA IN MODEL MUMODEL          PACKAGE MUMODEL         CONNECTED TO MODEL MUMODEL          PACKAGE RCH-1            ON UNIT   1015 AT TIME STEP      6, STRESS PERIOD      8

 WEL PACKAGE (WEL-1) FLOW RATES   PERIOD      8   STEP        6
 -----------------------------------------------
   NUMBER   CELLID                    RATE      
 -----------------------------------------------
     1      (1,5,5)               0.0000000     
     2      (1,11,5)              0.0000000     
     3      (1,5,5)               0.0000000     
 -----------------------------------------------




 CHD PACKAGE (CHD-FROM-IBOUND) FLOW RATES   PERIOD      8   STEP        6
 -----------------------------------------------
   NUMBER   CELLID                    RATE      
 -----------------------------------------------
     1      (1,1,1)              -1293.4161     
     2      (1,1,2)              -1293.4131     
     3      (1,1,3)              -1293.4123     
     4      (1,1,4)              -1293.4134     
     5      (1,1,5)              -1293.4149     
     6      (1,1,6)              -1293.4163     
     7      (1,1,7)              -1293.4178     
     8      (1,1,8)              -1293.4196     
     9      (1,1,9)              -1293.4215     
     10     (1,21,1)             -1293.4202     
     11     (1,21,2)             -1293.4180     
     12     (1,21,3)             -1293.4163     
     13     (1,21,4)             -1293.4148     
     14     (1,21,5)             -1293.4134     
     15     (1,21,6)             -1293.4122     
     16     (1,21,7)             -1293.4124     
     17     (1,21,8)             -1293.4150     
     18     (1,21,9)             -1293.4199     
 -----------------------------------------------




 HEAD WILL BE SAVED ON UNIT 1016 AT END OF TIME STEP    6, STRESS PERIOD    8


  VOLUME BUDGET FOR ENTIRE MODEL AT END OF TIME STEP    6, STRESS PERIOD   8
  ---------------------------------------------------------------------------------------------------

     CUMULATIVE VOLUME      L**3       RATES FOR THIS TIME STEP      L**3/T          PACKAGE NAME    
     ------------------                 ------------------------                     ----------------

           IN:                                      IN:
           ---                                      ---
              STO-SS =      438954.0424                STO-SS =       20288.5583     STORAGE                          
              STO-SY =       18779.1139                STO-SY =         855.4289     STORAGE                          
                 WEL =           0.0000                   WEL =           0.0000     WEL-1                            
                RCHA =    16092504.8680                  RCHA =        2137.5000     RCH-1                            
                 CHD =           0.0000                   CHD =           0.0000     CHD-FROM-IBOUND                  

            TOTAL IN =    16550238.0243              TOTAL IN =       23281.4872

          OUT:                                     OUT:
          ----                                     ----
              STO-SS =    11507173.9247                STO-SS =           0.0000     STORAGE                          
              STO-SY =      480409.1271                STO-SY =           0.0000     STORAGE                          
                 WEL =           0.0000                   WEL =           0.0000     WEL-1                            
                RCHA =           0.0000                  RCHA =           0.0000     RCH-1                            
                 CHD =     4562665.3585                   CHD =       23281.4872     CHD-FROM-IBOUND                  

           TOTAL OUT =    16550248.4103             TOTAL OUT =       23281.4872

            IN - OUT =         -10.3860              IN - OUT =       6.0119E-05

 PERCENT DISCREPANCY =          -0.00     PERCENT DISCREPANCY =           0.00




         TIME SUMMARY AT END OF TIME STEP    6 IN STRESS PERIOD    8
                    SECONDS     MINUTES      HOURS       DAYS        YEARS
                    -----------------------------------------------------------
   TIME STEP LENGTH 4.03945E+05  6732.4      112.21      4.6753     1.28002E-02
 STRESS PERIOD TIME 1.61199E+06  26866.      447.77      18.657     5.10808E-02
         TOTAL TIME 1.73368E+07 2.88946E+05  4815.8      200.66     0.54937    


end timestep


start timestep kper="8" kstp="7" mode="normal"

 UBDSV1 SAVING     FLOW-JA-FACE ON UNIT   1015 AT TIME STEP      7, STRESS PERIOD      8
 UBDSV06 SAVING              WEL IN MODEL MUMODEL          PACKAGE MUMODEL         CONNECTED TO MODEL MUMODEL          PACKAGE WEL-1            ON UNIT   1015 AT TIME STEP      7, STRESS PERIOD      8
 UBDSV06 SAVING             RCHA IN MODEL MUMODEL          PACKAGE MUMODEL         CONNECTED TO MODEL MUMODEL          PACKAGE RCH-1            ON UNIT   1015 AT TIME STEP      7, STRESS PERIOD      8

 WEL PACKAGE (WEL-1) FLOW RATES   PERIOD      8   STEP        7
 -----------------------------------------------
   NUMBER   CELLID                    RATE      
 -----------------------------------------------
     1      (1,5,5)               0.0000000     
     2      (1,11,5)              0.0000000     
     3      (1,5,5)               0.0000000     
 -----------------------------------------------




 CHD PACKAGE (CHD-FROM-IBOUND) FLOW RATES   PERIOD      8   STEP        7
 -----------------------------------------------
   NUMBER   CELLID                    RATE      
 -----------------------------------------------
     1      (1,1,1)              -1291.3548     
     2      (1,1,2)              -1291.3519     
     3      (1,1,3)              -1291.3511     
     4      (1,1,4)              -1291.3521     
     5      (1,1,5)              -1291.3536     
     6      (1,1,6)              -1291.3551     
     7      (1,1,7)              -1291.3565     
     8      (1,1,8)              -1291.3583     
     9      (1,1,9)              -1291.3601     
     10     (1,21,1)             -1291.3588     
     11     (1,21,2)             -1291.3567     
     12     (1,21,3)             -1291.3550     
     13     (1,21,4)             -1291.3536     
     14     (1,21,5)             -1291.3521     
     15     (1,21,6)             -1291.3510     
     16     (1,21,7)             -1291.3512     
     17     (1,21,8)             -1291.3538     
     18     (1,21,9)             -1291.3587     
 -----------------------------------------------




 HEAD WILL BE SAVED ON UNIT 1016 AT END OF TIME STEP    7, STRESS PERIOD    8


  VOLUME BUDGET FOR ENTIRE MODEL AT END OF TIME STEP    7, STRESS PERIOD   8
  ---------------------------------------------------------------------------------------------------

     CUMULATIVE VOLUME      L**3       RATES FOR THIS TIME STEP      L**3/T          PACKAGE NAME    
     ------------------                 ------------------------                     ----------------

           IN:                                      IN:
           ---                                      ---
              STO-SS =      552580.9194                STO-SS =       20253.1116     STORAGE                          
              STO-SY =       23569.0724                STO-SY =         853.7730     STORAGE                          
                 WEL =           0.0000                   WEL =           0.0000     WEL-1                            
                RCHA =    16104496.9735                  RCHA =        2137.5000     RCH-1                            
                 CHD =           0.0000                   CHD =           0.0000     CHD-FROM-IBOUND                  

            TOTAL IN =    16680646.9652              TOTAL IN =       23244.3846

          OUT:                                     OUT:
          ----                                     ----
              STO-SS =    11507173.9247                STO-SS =           0.0000     STORAGE                          
              STO-SY =      480409.1271                STO-SY =           0.0000     STORAGE                          
                 WEL =           0.0000                   WEL =           0.0000     WEL-1                            
                RCHA =           0.0000                  RCHA =           0.0000     RCH-1                            
                 CHD =     4693074.2988                   CHD =       23244.3845     CHD-FROM-IBOUND                  

           TOTAL OUT =    16680657.3507             TOTAL OUT =       23244.3845

            IN - OUT =         -10.3854              IN - OUT =       9.9445E-05

 PERCENT DISCREPANCY =          -0.00     PERCENT DISCREPANCY =           0.00




         TIME SUMMARY AT END OF TIME STEP    7 IN STRESS PERIOD    8
                    SECONDS     MINUTES      HOURS       DAYS        YEARS
                    -----------------------------------------------------------
   TIME STEP LENGTH 4.84734E+05  8078.9      134.65      5.6103     1.53603E-02
 STRESS PERIOD TIME 2.09672E+06  34945.      582.42      24.268     6.64410E-02
         TOTAL TIME 1.78215E+07 2.97025E+05  4950.4      206.27     0.56473    


end timestep


start timestep kper="8" kstp="8" mode="normal"

 UBDSV1 SAVING     FLOW-JA-FACE ON UNIT   1015 AT TIME STEP      8, STRESS PERIOD      8
 UBDSV06 SAVING              WEL IN MODEL MUMODEL          PACKAGE MUMODEL         CONNECTED TO MODEL MUMODEL          PACKAGE WEL-1            ON UNIT   1015 AT TIME STEP      8, STRESS PERIOD      8
 UBDSV06 SAVING             RCHA IN MODEL MUMODEL          PACKAGE MUMODEL         CONNECTED TO MODEL MUMODEL          PACKAGE RCH-1            ON UNIT   1015 AT TIME STEP      8, STRESS PERIOD      8

 WEL PACKAGE (WEL-1) FLOW RATES   PERIOD      8   STEP        8
 -----------------------------------------------
   NUMBER   CELLID                    RATE      
 -----------------------------------------------
     1      (1,5,5)               0.0000000     
     2      (1,11,5)              0.0000000     
     3      (1,5,5)               0.0000000     
 -----------------------------------------------




 CHD PACKAGE (CHD-FROM-IBOUND) FLOW RATES   PERIOD      8   STEP        8
 -----------------------------------------------
   NUMBER   CELLID                    RATE      
 -----------------------------------------------
     1      (1,1,1)              -1288.9217     
     2      (1,1,2)              -1288.9189     
     3      (1,1,3)              -1288.9181     
     4      (1,1,4)              -1288.9191     
     5      (1,1,5)              -1288.9206     
     6      (1,1,6)              -1288.9220     
     7      (1,1,7)              -1288.9234     
     8      (1,1,8)              -1288.9251     
     9      (1,1,9)              -1288.9270     
     10     (1,21,1)             -1288.9257     
     11     (1,21,2)             -1288.9236     
     12     (1,21,3)             -1288.9219     
     13     (1,21,4)             -1288.9205     
     14     (1,21,5)             -1288.9191     
     15     (1,21,6)             -1288.9180     
     16     (1,21,7)             -1288.9182     
     17     (1,21,8)             -1288.9208     
     18     (1,21,9)             -1288.9256     
 -----------------------------------------------




 HEAD WILL BE SAVED ON UNIT 1016 AT END OF TIME STEP    8, STRESS PERIOD    8


  VOLUME BUDGET FOR ENTIRE MODEL AT END OF TIME STEP    8, STRESS PERIOD   8
  ---------------------------------------------------------------------------------------------------

     CUMULATIVE VOLUME      L**3       RATES FOR THIS TIME STEP      L**3/T          PACKAGE NAME    
     ------------------                 ------------------------                     ----------------

           IN:                                      IN:
           ---                                      ---
              STO-SS =      688651.4751                STO-SS =       20211.2697     STORAGE                          
              STO-SY =       29303.8711                STO-SY =         851.8196     STORAGE                          
                 WEL =           0.0000                   WEL =           0.0000     WEL-1                            
                RCHA =    16118887.5000                  RCHA =        2137.5000     RCH-1                            
                 CHD =           0.0000                   CHD =           0.0000     CHD-FROM-IBOUND                  

            TOTAL IN =    16836842.8462              TOTAL IN =       23200.5893

          OUT:                                     OUT:
          ----                                     ----
              STO-SS =    11507173.9247                STO-SS =           0.0000     STORAGE                          
              STO-SY =      480409.1271                STO-SY =           0.0000     STORAGE                          
                 WEL =           0.0000                   WEL =           0.0000     WEL-1                            
                RCHA =           0.0000                  RCHA =           0.0000     RCH-1                            
                 CHD =     4849270.1787                   CHD =       23200.5891     CHD-FROM-IBOUND                  

           TOTAL OUT =    16836853.2306             TOTAL OUT =       23200.5891

            IN - OUT =         -10.3843              IN - OUT =       1.6278E-04

 PERCENT DISCREPANCY =          -0.00     PERCENT DISCREPANCY =           0.00




         TIME SUMMARY AT END OF TIME STEP    8 IN STRESS PERIOD    8
                    SECONDS     MINUTES      HOURS       DAYS        YEARS
                    -----------------------------------------------------------
   TIME STEP LENGTH 5.81680E+05  9694.7      161.58      6.7324     1.84323E-02
 STRESS PERIOD TIME 2.67840E+06  44640.      744.00      31.000     8.48734E-02
         TOTAL TIME 1.84032E+07 3.06720E+05  5112.0      213.00     0.58316    


end timestep


start timestep kper="9" kstp="1" mode="normal"


 OUTPUT CONTROL FOR STRESS PERIOD 9 IS REPEATED USING SETTINGS FROM A PREVIOUS STRESS PERIOD.


 STRESS PERIOD 9 IS TRANSIENT


 REUSING WELS FROM LAST STRESS PERIOD

 REUSING RCHS FROM LAST STRESS PERIOD

 REUSING CHDS FROM LAST STRESS PERIOD
 UBDSV1 SAVING     FLOW-JA-FACE ON UNIT   1015 AT TIME STEP      1, STRESS PERIOD      9
 UBDSV06 SAVING              WEL IN MODEL MUMODEL          PACKAGE MUMODEL         CONNECTED TO MODEL MUMODEL          PACKAGE WEL-1            ON UNIT   1015 AT TIME STEP      1, STRESS PERIOD      9
 UBDSV06 SAVING             RCHA IN MODEL MUMODEL          PACKAGE MUMODEL         CONNECTED TO MODEL MUMODEL          PACKAGE RCH-1            ON UNIT   1015 AT TIME STEP      1, STRESS PERIOD      9

 WEL PACKAGE (WEL-1) FLOW RATES   PERIOD      9   STEP        1
 -----------------------------------------------
   NUMBER   CELLID                    RATE      
 -----------------------------------------------
     1      (1,5,5)               0.0000000     
     2      (1,11,5)              0.0000000     
     3      (1,5,5)               0.0000000     
 -----------------------------------------------




 CHD PACKAGE (CHD-FROM-IBOUND) FLOW RATES   PERIOD      9   STEP        1
 -----------------------------------------------
   NUMBER   CELLID                    RATE      
 -----------------------------------------------
     1      (1,1,1)              -1288.2646     
     2      (1,1,2)              -1288.2617     
     3      (1,1,3)              -1288.2610     
     4      (1,1,4)              -1288.2619     
     5      (1,1,5)              -1288.2634     
     6      (1,1,6)              -1288.2648     
     7      (1,1,7)              -1288.2662     
     8      (1,1,8)              -1288.2680     
     9      (1,1,9)              -1288.2698     
     10     (1,21,1)             -1288.2685     
     11     (1,21,2)             -1288.2665     
     12     (1,21,3)             -1288.2648     
     13     (1,21,4)             -1288.2634     
     14     (1,21,5)             -1288.2619     
     15     (1,21,6)             -1288.2609     
     16     (1,21,7)             -1288.2611     
     17     (1,21,8)             -1288.2637     
     18     (1,21,9)             -1288.2684     
 -----------------------------------------------




 HEAD WILL BE SAVED ON UNIT 1016 AT END OF TIME STEP    1, STRESS PERIOD    9


  VOLUME BUDGET FOR ENTIRE MODEL AT END OF TIME STEP    1, STRESS PERIOD   9
  ---------------------------------------------------------------------------------------------------

     CUMULATIVE VOLUME      L**3       RATES FOR THIS TIME STEP      L**3/T          PACKAGE NAME    
     ------------------                 ------------------------                     ----------------

           IN:                                      IN:
           ---                                      ---
              STO-SS =      726604.6980                STO-SS =       20199.7885     STORAGE                          
              STO-SY =       30903.3765                STO-SY =         851.3024     STORAGE                          
                 WEL =           0.0000                   WEL =           0.0000     WEL-1                            
                RCHA =    16122903.6319                  RCHA =        2137.5000     RCH-1                            
                 CHD =           0.0000                   CHD =           0.0000     CHD-FROM-IBOUND                  

            TOTAL IN =    16880411.7064              TOTAL IN =       23188.5909

          OUT:                                     OUT:
          ----                                     ----
              STO-SS =    11507173.9247                STO-SS =           0.0000     STORAGE                          
              STO-SY =      480409.1271                STO-SY =           0.0000     STORAGE                          
                 WEL =           0.0000                   WEL =           0.0000     WEL-1                            
                RCHA =           0.0000                  RCHA =           0.0000     RCH-1                            
                 CHD =     4892839.3579                   CHD =       23188.7607     CHD-FROM-IBOUND                  

           TOTAL OUT =    16880422.4097             TOTAL OUT =       23188.7607

            IN - OUT =         -10.7033              IN - OUT =          -0.1698

 PERCENT DISCREPANCY =          -0.00     PERCENT DISCREPANCY =          -0.00




         TIME SUMMARY AT END OF TIME STEP    1 IN STRESS PERIOD    9
                    SECONDS     MINUTES      HOURS       DAYS        YEARS
                    -----------------------------------------------------------
   TIME STEP LENGTH 1.62336E+05  2705.6      45.093      1.8789     5.14413E-03
 STRESS PERIOD TIME 1.62336E+05  2705.6      45.093      1.8789     5.14413E-03
         TOTAL TIME 1.85655E+07 3.09426E+05  5157.1      214.88     0.58831    


end timestep


start timestep kper="9" kstp="2" mode="normal"

 UBDSV1 SAVING     FLOW-JA-FACE ON UNIT   1015 AT TIME STEP      2, STRESS PERIOD      9
 UBDSV06 SAVING              WEL IN MODEL MUMODEL          PACKAGE MUMODEL         CONNECTED TO MODEL MUMODEL          PACKAGE WEL-1            ON UNIT   1015 AT TIME STEP      2, STRESS PERIOD      9
 UBDSV06 SAVING             RCHA IN MODEL MUMODEL          PACKAGE MUMODEL         CONNECTED TO MODEL MUMODEL          PACKAGE RCH-1            ON UNIT   1015 AT TIME STEP      2, STRESS PERIOD      9

 WEL PACKAGE (WEL-1) FLOW RATES   PERIOD      9   STEP        2
 -----------------------------------------------
   NUMBER   CELLID                    RATE      
 -----------------------------------------------
     1      (1,5,5)               0.0000000     
     2      (1,11,5)              0.0000000     
     3      (1,5,5)               0.0000000     
 -----------------------------------------------




 CHD PACKAGE (CHD-FROM-IBOUND) FLOW RATES   PERIOD      9   STEP        2
 -----------------------------------------------
   NUMBER   CELLID                    RATE      
 -----------------------------------------------
     1      (1,1,1)              -1287.4616     
     2      (1,1,2)              -1287.4588     
     3      (1,1,3)              -1287.4580     
     4      (1,1,4)              -1287.4590     
     5      (1,1,5)              -1287.4605     
     6      (1,1,6)              -1287.4619     
     7      (1,1,7)              -1287.4633     
     8      (1,1,8)              -1287.4650     
     9      (1,1,9)              -1287.4668     
     10     (1,21,1)             -1287.4655     
     11     (1,21,2)             -1287.4635     
     12     (1,21,3)             -1287.4618     
     13     (1,21,4)             -1287.4604     
     14     (1,21,5)             -1287.4590     
     15     (1,21,6)             -1287.4579     
     16     (1,21,7)             -1287.4582     
     17     (1,21,8)             -1287.4608     
     18     (1,21,9)             -1287.4655     
 -----------------------------------------------




 HEAD WILL BE SAVED ON UNIT 1016 AT END OF TIME STEP    2, STRESS PERIOD    9


  VOLUME BUDGET FOR ENTIRE MODEL AT END OF TIME STEP    2, STRESS PERIOD   9
  ---------------------------------------------------------------------------------------------------

     CUMULATIVE VOLUME      L**3       RATES FOR THIS TIME STEP      L**3/T          PACKAGE NAME    
     ------------------                 ------------------------                     ----------------

           IN:                                      IN:
           ---                                      ---
              STO-SS =      772117.3600                STO-SS =       20185.9481     STORAGE                          
              STO-SY =       32821.3258                STO-SY =         850.6561     STORAGE                          
                 WEL =           0.0000                   WEL =           0.0000     WEL-1                            
                RCHA =    16127722.9901                  RCHA =        2137.5000     RCH-1                            
                 CHD =           0.0000                   CHD =           0.0000     CHD-FROM-IBOUND                  

            TOTAL IN =    16932661.6759              TOTAL IN =       23174.1042

          OUT:                                     OUT:
          ----                                     ----
              STO-SS =    11507173.9247                STO-SS =           0.0000     STORAGE                          
              STO-SY =      480409.1271                STO-SY =           0.0000     STORAGE                          
                 WEL =           0.0000                   WEL =           0.0000     WEL-1                            
                RCHA =           0.0000                  RCHA =           0.0000     RCH-1                            
                 CHD =     4945089.7856                   CHD =       23174.3075     CHD-FROM-IBOUND                  

           TOTAL OUT =    16932672.8374             TOTAL OUT =       23174.3075

            IN - OUT =         -11.1615              IN - OUT =          -0.2032

 PERCENT DISCREPANCY =          -0.00     PERCENT DISCREPANCY =          -0.00




         TIME SUMMARY AT END OF TIME STEP    2 IN STRESS PERIOD    9
                    SECONDS     MINUTES      HOURS       DAYS        YEARS
                    -----------------------------------------------------------
   TIME STEP LENGTH 1.94804E+05  3246.7      54.112      2.2547     6.17295E-03
 STRESS PERIOD TIME 3.57140E+05  5952.3      99.206      4.1336     1.13171E-02
         TOTAL TIME 1.87603E+07 3.12672E+05  5211.2      217.13     0.59448    


end timestep


start timestep kper="9" kstp="3" mode="normal"

 UBDSV1 SAVING     FLOW-JA-FACE ON UNIT   1015 AT TIME STEP      3, STRESS PERIOD      9
 UBDSV06 SAVING              WEL IN MODEL MUMODEL          PACKAGE MUMODEL         CONNECTED TO MODEL MUMODEL          PACKAGE WEL-1            ON UNIT   1015 AT TIME STEP      3, STRESS PERIOD      9
 UBDSV06 SAVING             RCHA IN MODEL MUMODEL          PACKAGE MUMODEL         CONNECTED TO MODEL MUMODEL          PACKAGE RCH-1            ON UNIT   1015 AT TIME STEP      3, STRESS PERIOD      9

 WEL PACKAGE (WEL-1) FLOW RATES   PERIOD      9   STEP        3
 -----------------------------------------------
   NUMBER   CELLID                    RATE      
 -----------------------------------------------
     1      (1,5,5)               0.0000000     
     2      (1,11,5)              0.0000000     
     3      (1,5,5)               0.0000000     
 -----------------------------------------------




 CHD PACKAGE (CHD-FROM-IBOUND) FLOW RATES   PERIOD      9   STEP        3
 -----------------------------------------------
   NUMBER   CELLID                    RATE      
 -----------------------------------------------
     1      (1,1,1)              -1286.5044     
     2      (1,1,2)              -1286.5016     
     3      (1,1,3)              -1286.5008     
     4      (1,1,4)              -1286.5017     
     5      (1,1,5)              -1286.5032     
     6      (1,1,6)              -1286.5046     
     7      (1,1,7)              -1286.5060     
     8      (1,1,8)              -1286.5078     
     9      (1,1,9)              -1286.5096     
     10     (1,21,1)             -1286.5082     
     11     (1,21,2)             -1286.5062     
     12     (1,21,3)             -1286.5045     
     13     (1,21,4)             -1286.5032     
     14     (1,21,5)             -1286.5017     
     15     (1,21,6)             -1286.5007     
     16     (1,21,7)             -1286.5010     
     17     (1,21,8)             -1286.5036     
     18     (1,21,9)             -1286.5082     
 -----------------------------------------------




 HEAD WILL BE SAVED ON UNIT 1016 AT END OF TIME STEP    3, STRESS PERIOD    9


  VOLUME BUDGET FOR ENTIRE MODEL AT END OF TIME STEP    3, STRESS PERIOD   9
  ---------------------------------------------------------------------------------------------------

     CUMULATIVE VOLUME      L**3       RATES FOR THIS TIME STEP      L**3/T          PACKAGE NAME    
     ------------------                 ------------------------                     ----------------

           IN:                                      IN:
           ---                                      ---
              STO-SS =      826687.9121                STO-SS =       20169.4482     STORAGE                          
              STO-SY =       35120.7809                STO-SY =         849.8858     STORAGE                          
                 WEL =           0.0000                   WEL =           0.0000     WEL-1                            
                RCHA =    16133506.2199                  RCHA =        2137.5000     RCH-1                            
                 CHD =           0.0000                   CHD =           0.0000     CHD-FROM-IBOUND                  

            TOTAL IN =    16995314.9129              TOTAL IN =       23156.8340

          OUT:                                     OUT:
          ----                                     ----
              STO-SS =    11507173.9247                STO-SS =           0.0000     STORAGE                          
              STO-SY =      480409.1271                STO-SY =           0.0000     STORAGE                          
                 WEL =           0.0000                   WEL =           0.0000     WEL-1                            
                RCHA =           0.0000                  RCHA =           0.0000     RCH-1                            
                 CHD =     5007743.6802                   CHD =       23157.0771     CHD-FROM-IBOUND                  

           TOTAL OUT =    16995326.7320             TOTAL OUT =       23157.0771

            IN - OUT =         -11.8191              IN - OUT =          -0.2431

 PERCENT DISCREPANCY =          -0.00     PERCENT DISCREPANCY =          -0.00




         TIME SUMMARY AT END OF TIME STEP    3 IN STRESS PERIOD    9
                    SECONDS     MINUTES      HOURS       DAYS        YEARS
                    -----------------------------------------------------------
   TIME STEP LENGTH 2.33764E+05  3896.1      64.935      2.7056     7.40754E-03
 STRESS PERIOD TIME 5.90904E+05  9848.4      164.14      6.8392     1.87246E-02
         TOTAL TIME 1.89941E+07 3.16568E+05  5276.1      219.84     0.60189    


end timestep


start timestep kper="9" kstp="4" mode="normal"

 UBDSV1 SAVING     FLOW-JA-FACE ON UNIT   1015 AT TIME STEP      4, STRESS PERIOD      9
 UBDSV06 SAVING              WEL IN MODEL MUMODEL          PACKAGE MUMODEL         CONNECTED TO MODEL MUMODEL          PACKAGE WEL-1            ON UNIT   1015 AT TIME STEP      4, STRESS PERIOD      9
 UBDSV06 SAVING             RCHA IN MODEL MUMODEL          PACKAGE MUMODEL         CONNECTED TO MODEL MUMODEL          PACKAGE RCH-1            ON UNIT   1015 AT TIME STEP      4, STRESS PERIOD      9

 WEL PACKAGE (WEL-1) FLOW RATES   PERIOD      9   STEP        4
 -----------------------------------------------
   NUMBER   CELLID                    RATE      
 -----------------------------------------------
     1      (1,5,5)               0.0000000     
     2      (1,11,5)              0.0000000     
     3      (1,5,5)               0.0000000     
 -----------------------------------------------




 CHD PACKAGE (CHD-FROM-IBOUND) FLOW RATES   PERIOD      9   STEP        4
 -----------------------------------------------
   NUMBER   CELLID                    RATE      
 -----------------------------------------------
     1      (1,1,1)              -1285.3329     
     2      (1,1,2)              -1285.3301     
     3      (1,1,3)              -1285.3293     
     4      (1,1,4)              -1285.3302     
     5      (1,1,5)              -1285.3317     
     6      (1,1,6)              -1285.3331     
     7      (1,1,7)              -1285.3345     
     8      (1,1,8)              -1285.3362     
     9      (1,1,9)              -1285.3380     
     10     (1,21,1)             -1285.3366     
     11     (1,21,2)             -1285.3347     
     12     (1,21,3)             -1285.3330     
     13     (1,21,4)             -1285.3316     
     14     (1,21,5)             -1285.3302     
     15     (1,21,6)             -1285.3292     
     16     (1,21,7)             -1285.3295     
     17     (1,21,8)             -1285.3321     
     18     (1,21,9)             -1285.3367     
 -----------------------------------------------




 HEAD WILL BE SAVED ON UNIT 1016 AT END OF TIME STEP    4, STRESS PERIOD    9


  VOLUME BUDGET FOR ENTIRE MODEL AT END OF TIME STEP    4, STRESS PERIOD   9
  ---------------------------------------------------------------------------------------------------

     CUMULATIVE VOLUME      L**3       RATES FOR THIS TIME STEP      L**3/T          PACKAGE NAME    
     ------------------                 ------------------------                     ----------------

           IN:                                      IN:
           ---                                      ---
              STO-SS =      892107.9086                STO-SS =       20149.5309     STORAGE                          
              STO-SY =       37877.1165                STO-SY =         848.9586     STORAGE                          
                 WEL =           0.0000                   WEL =           0.0000     WEL-1                            
                RCHA =    16140446.0958                  RCHA =        2137.5000     RCH-1                            
                 CHD =           0.0000                   CHD =           0.0000     CHD-FROM-IBOUND                  

            TOTAL IN =    17070431.1208              TOTAL IN =       23135.9895

          OUT:                                     OUT:
          ----                                     ----
              STO-SS =    11507173.9247                STO-SS =           0.0000     STORAGE                          
              STO-SY =      480409.1271                STO-SY =           0.0000     STORAGE                          
                 WEL =           0.0000                   WEL =           0.0000     WEL-1                            
                RCHA =           0.0000                  RCHA =           0.0000     RCH-1                            
                 CHD =     5082859.8881                   CHD =       23135.9895     CHD-FROM-IBOUND                  

           TOTAL OUT =    17070442.9399             TOTAL OUT =       23135.9895

            IN - OUT =         -11.8191              IN - OUT =       1.6090E-05

 PERCENT DISCREPANCY =          -0.00     PERCENT DISCREPANCY =           0.00




         TIME SUMMARY AT END OF TIME STEP    4 IN STRESS PERIOD    9
                    SECONDS     MINUTES      HOURS       DAYS        YEARS
                    -----------------------------------------------------------
   TIME STEP LENGTH 2.80517E+05  4675.3      77.921      3.2467     8.88905E-03
 STRESS PERIOD TIME 8.71421E+05  14524.      242.06      10.086     2.76137E-02
         TOTAL TIME 1.92746E+07 3.21244E+05  5354.1      223.09     0.61078    


end timestep


start timestep kper="9" kstp="5" mode="normal"

 UBDSV1 SAVING     FLOW-JA-FACE ON UNIT   1015 AT TIME STEP      5, STRESS PERIOD      9
 UBDSV06 SAVING              WEL IN MODEL MUMODEL          PACKAGE MUMODEL         CONNECTED TO MODEL MUMODEL          PACKAGE WEL-1            ON UNIT   1015 AT TIME STEP      5, STRESS PERIOD      9
 UBDSV06 SAVING             RCHA IN MODEL MUMODEL          PACKAGE MUMODEL         CONNECTED TO MODEL MUMODEL          PACKAGE RCH-1            ON UNIT   1015 AT TIME STEP      5, STRESS PERIOD      9

 WEL PACKAGE (WEL-1) FLOW RATES   PERIOD      9   STEP        5
 -----------------------------------------------
   NUMBER   CELLID                    RATE      
 -----------------------------------------------
     1      (1,5,5)               0.0000000     
     2      (1,11,5)              0.0000000     
     3      (1,5,5)               0.0000000     
 -----------------------------------------------




 CHD PACKAGE (CHD-FROM-IBOUND) FLOW RATES   PERIOD      9   STEP        5
 -----------------------------------------------
   NUMBER   CELLID                    RATE      
 -----------------------------------------------
     1      (1,1,1)              -1283.9718     
     2      (1,1,2)              -1283.9690     
     3      (1,1,3)              -1283.9682     
     4      (1,1,4)              -1283.9692     
     5      (1,1,5)              -1283.9706     
     6      (1,1,6)              -1283.9720     
     7      (1,1,7)              -1283.9734     
     8      (1,1,8)              -1283.9751     
     9      (1,1,9)              -1283.9769     
     10     (1,21,1)             -1283.9755     
     11     (1,21,2)             -1283.9736     
     12     (1,21,3)             -1283.9719     
     13     (1,21,4)             -1283.9705     
     14     (1,21,5)             -1283.9692     
     15     (1,21,6)             -1283.9682     
     16     (1,21,7)             -1283.9684     
     17     (1,21,8)             -1283.9711     
     18     (1,21,9)             -1283.9756     
 -----------------------------------------------




 HEAD WILL BE SAVED ON UNIT 1016 AT END OF TIME STEP    5, STRESS PERIOD    9


  VOLUME BUDGET FOR ENTIRE MODEL AT END OF TIME STEP    5, STRESS PERIOD   9
  ---------------------------------------------------------------------------------------------------

     CUMULATIVE VOLUME      L**3       RATES FOR THIS TIME STEP      L**3/T          PACKAGE NAME    
     ------------------                 ------------------------                     ----------------

           IN:                                      IN:
           ---                                      ---
              STO-SS =      970520.7058                STO-SS =       20126.1230     STORAGE                          
              STO-SY =       41180.4661                STO-SY =         847.8670     STORAGE                          
                 WEL =           0.0000                   WEL =           0.0000     WEL-1                            
                RCHA =    16148773.9468                  RCHA =        2137.5000     RCH-1                            
                 CHD =           0.0000                   CHD =           0.0000     CHD-FROM-IBOUND                  

            TOTAL IN =    17160475.1188              TOTAL IN =       23111.4900

          OUT:                                     OUT:
          ----                                     ----
              STO-SS =    11507173.9247                STO-SS =           0.0000     STORAGE                          
              STO-SY =      480409.1271                STO-SY =           0.0000     STORAGE                          
                 WEL =           0.0000                   WEL =           0.0000     WEL-1                            
                RCHA =           0.0000                  RCHA =           0.0000     RCH-1                            
                 CHD =     5172903.8859                   CHD =       23111.4900     CHD-FROM-IBOUND                  

           TOTAL OUT =    17160486.9377             TOTAL OUT =       23111.4900

            IN - OUT =         -11.8189              IN - OUT =       3.1006E-05

 PERCENT DISCREPANCY =          -0.00     PERCENT DISCREPANCY =           0.00




         TIME SUMMARY AT END OF TIME STEP    5 IN STRESS PERIOD    9
                    SECONDS     MINUTES      HOURS       DAYS        YEARS
                    -----------------------------------------------------------
   TIME STEP LENGTH 3.36621E+05  5610.3      93.506      3.8961     1.06669E-02
 STRESS PERIOD TIME 1.20804E+06  20134.      335.57      13.982     3.82805E-02
         TOTAL TIME 1.96112E+07 3.26854E+05  5447.6      226.98     0.62144    


end timestep


start timestep kper="9" kstp="6" mode="normal"

 UBDSV1 SAVING     FLOW-JA-FACE ON UNIT   1015 AT TIME STEP      6, STRESS PERIOD      9
 UBDSV06 SAVING              WEL IN MODEL MUMODEL          PACKAGE MUMODEL         CONNECTED TO MODEL MUMODEL          PACKAGE WEL-1            ON UNIT   1015 AT TIME STEP      6, STRESS PERIOD      9
 UBDSV06 SAVING             RCHA IN MODEL MUMODEL          PACKAGE MUMODEL         CONNECTED TO MODEL MUMODEL          PACKAGE RCH-1            ON UNIT   1015 AT TIME STEP      6, STRESS PERIOD      9

 WEL PACKAGE (WEL-1) FLOW RATES   PERIOD      9   STEP        6
 -----------------------------------------------
   NUMBER   CELLID                    RATE      
 -----------------------------------------------
     1      (1,5,5)               0.0000000     
     2      (1,11,5)              0.0000000     
     3      (1,5,5)               0.0000000     
 -----------------------------------------------




 CHD PACKAGE (CHD-FROM-IBOUND) FLOW RATES   PERIOD      9   STEP        6
 -----------------------------------------------
   NUMBER   CELLID                    RATE      
 -----------------------------------------------
     1      (1,1,1)              -1282.3566     
     2      (1,1,2)              -1282.3538     
     3      (1,1,3)              -1282.3530     
     4      (1,1,4)              -1282.3539     
     5      (1,1,5)              -1282.3554     
     6      (1,1,6)              -1282.3568     
     7      (1,1,7)              -1282.3581     
     8      (1,1,8)              -1282.3598     
     9      (1,1,9)              -1282.3616     
     10     (1,21,1)             -1282.3602     
     11     (1,21,2)             -1282.3583     
     12     (1,21,3)             -1282.3567     
     13     (1,21,4)             -1282.3553     
     14     (1,21,5)             -1282.3540     
     15     (1,21,6)             -1282.3530     
     16     (1,21,7)             -1282.3533     
     17     (1,21,8)             -1282.3559     
     18     (1,21,9)             -1282.3604     
 -----------------------------------------------




 HEAD WILL BE SAVED ON UNIT 1016 AT END OF TIME STEP    6, STRESS PERIOD    9


  VOLUME BUDGET FOR ENTIRE MODEL AT END OF TIME STEP    6, STRESS PERIOD   9
  ---------------------------------------------------------------------------------------------------

     CUMULATIVE VOLUME      L**3       RATES FOR THIS TIME STEP      L**3/T          PACKAGE NAME    
     ------------------                 ------------------------                     ----------------

           IN:                                      IN:
           ---                                      ---
              STO-SS =     1064486.1879                STO-SS =       20098.3441     STORAGE                          
              STO-SY =       45138.4316                STO-SY =         846.5721     STORAGE                          
                 WEL =           0.0000                   WEL =           0.0000     WEL-1                            
                RCHA =    16158767.3680                  RCHA =        2137.5000     RCH-1                            
                 CHD =           0.0000                   CHD =           0.0000     CHD-FROM-IBOUND                  

            TOTAL IN =    17268391.9875              TOTAL IN =       23082.4161

          OUT:                                     OUT:
          ----                                     ----
              STO-SS =    11507173.9247                STO-SS =           0.0000     STORAGE                          
              STO-SY =      480409.1271                STO-SY =           0.0000     STORAGE                          
                 WEL =           0.0000                   WEL =           0.0000     WEL-1                            
                RCHA =           0.0000                  RCHA =           0.0000     RCH-1                            
                 CHD =     5280820.7544                   CHD =       23082.4161     CHD-FROM-IBOUND                  

           TOTAL OUT =    17268403.8062             TOTAL OUT =       23082.4161

            IN - OUT =         -11.8187              IN - OUT =       4.9738E-05

 PERCENT DISCREPANCY =          -0.00     PERCENT DISCREPANCY =           0.00




         TIME SUMMARY AT END OF TIME STEP    6 IN STRESS PERIOD    9
                    SECONDS     MINUTES      HOURS       DAYS        YEARS
                    -----------------------------------------------------------
   TIME STEP LENGTH 4.03945E+05  6732.4      112.21      4.6753     1.28002E-02
 STRESS PERIOD TIME 1.61199E+06  26866.      447.77      18.657     5.10808E-02
         TOTAL TIME 2.00152E+07 3.33586E+05  5559.8      231.66     0.63424    


end timestep


start timestep kper="9" kstp="7" mode="normal"

 UBDSV1 SAVING     FLOW-JA-FACE ON UNIT   1015 AT TIME STEP      7, STRESS PERIOD      9
 UBDSV06 SAVING              WEL IN MODEL MUMODEL          PACKAGE MUMODEL         CONNECTED TO MODEL MUMODEL          PACKAGE WEL-1            ON UNIT   1015 AT TIME STEP      7, STRESS PERIOD      9
 UBDSV06 SAVING             RCHA IN MODEL MUMODEL          PACKAGE MUMODEL         CONNECTED TO MODEL MUMODEL          PACKAGE RCH-1            ON UNIT   1015 AT TIME STEP      7, STRESS PERIOD      9

 WEL PACKAGE (WEL-1) FLOW RATES   PERIOD      9   STEP        7
 -----------------------------------------------
   NUMBER   CELLID                    RATE      
 -----------------------------------------------
     1      (1,5,5)               0.0000000     
     2      (1,11,5)              0.0000000     
     3      (1,5,5)               0.0000000     
 -----------------------------------------------




 CHD PACKAGE (CHD-FROM-IBOUND) FLOW RATES   PERIOD      9   STEP        7
 -----------------------------------------------
   NUMBER   CELLID                    RATE      
 -----------------------------------------------
     1      (1,1,1)              -1280.4437     
     2      (1,1,2)              -1280.4411     
     3      (1,1,3)              -1280.4403     
     4      (1,1,4)              -1280.4412     
     5      (1,1,5)              -1280.4426     
     6      (1,1,6)              -1280.4439     
     7      (1,1,7)              -1280.4453     
     8      (1,1,8)              -1280.4470     
     9      (1,1,9)              -1280.4487     
     10     (1,21,1)             -1280.4474     
     11     (1,21,2)             -1280.4455     
     12     (1,21,3)             -1280.4438     
     13     (1,21,4)             -1280.4425     
     14     (1,21,5)             -1280.4412     
     15     (1,21,6)             -1280.4402     
     16     (1,21,7)             -1280.4406     
     17     (1,21,8)             -1280.4432     
     18     (1,21,9)             -1280.4476     
 -----------------------------------------------




 HEAD WILL BE SAVED ON UNIT 1016 AT END OF TIME STEP    7, STRESS PERIOD    9


  VOLUME BUDGET FOR ENTIRE MODEL AT END OF TIME STEP    7, STRESS PERIOD   9
  ---------------------------------------------------------------------------------------------------

     CUMULATIVE VOLUME      L**3       RATES FOR THIS TIME STEP      L**3/T          PACKAGE NAME    
     ------------------                 ------------------------                     ----------------

           IN:                                      IN:
           ---                                      ---
              STO-SS =     1177060.1995                STO-SS =       20065.4465     STORAGE                          
              STO-SY =       49879.3911                STO-SY =         845.0393     STORAGE                          
                 WEL =           0.0000                   WEL =           0.0000     WEL-1                            
                RCHA =    16170759.4735                  RCHA =        2137.5000     RCH-1                            
                 CHD =           0.0000                   CHD =           0.0000     CHD-FROM-IBOUND                  

            TOTAL IN =    17397699.0641              TOTAL IN =       23047.9858

          OUT:                                     OUT:
          ----                                     ----
              STO-SS =    11507173.9247                STO-SS =           0.0000     STORAGE                          
              STO-SY =      480409.1271                STO-SY =           0.0000     STORAGE                          
                 WEL =           0.0000                   WEL =           0.0000     WEL-1                            
                RCHA =           0.0000                  RCHA =           0.0000     RCH-1                            
                 CHD =     5410127.8305                   CHD =       23047.9857     CHD-FROM-IBOUND                  

           TOTAL OUT =    17397710.8823             TOTAL OUT =       23047.9857

            IN - OUT =         -11.8183              IN - OUT =       8.2755E-05

 PERCENT DISCREPANCY =          -0.00     PERCENT DISCREPANCY =           0.00




         TIME SUMMARY AT END OF TIME STEP    7 IN STRESS PERIOD    9
                    SECONDS     MINUTES      HOURS       DAYS        YEARS
                    -----------------------------------------------------------
   TIME STEP LENGTH 4.84734E+05  8078.9      134.65      5.6103     1.53603E-02
 STRESS PERIOD TIME 2.09672E+06  34945.      582.42      24.268     6.64410E-02
         TOTAL TIME 2.04999E+07 3.41665E+05  5694.4      237.27     0.64960    


end timestep


start timestep kper="9" kstp="8" mode="normal"

 UBDSV1 SAVING     FLOW-JA-FACE ON UNIT   1015 AT TIME STEP      8, STRESS PERIOD      9
 UBDSV06 SAVING              WEL IN MODEL MUMODEL          PACKAGE MUMODEL         CONNECTED TO MODEL MUMODEL          PACKAGE WEL-1            ON UNIT   1015 AT TIME STEP      8, STRESS PERIOD      9
 UBDSV06 SAVING             RCHA IN MODEL MUMODEL          PACKAGE MUMODEL         CONNECTED TO MODEL MUMODEL          PACKAGE RCH-1            ON UNIT   1015 AT TIME STEP      8, STRESS PERIOD      9

 WEL PACKAGE (WEL-1) FLOW RATES   PERIOD      9   STEP        8
 -----------------------------------------------
   NUMBER   CELLID                    RATE      
 -----------------------------------------------
     1      (1,5,5)               0.0000000     
     2      (1,11,5)              0.0000000     
     3      (1,5,5)               0.0000000     
 -----------------------------------------------




 CHD PACKAGE (CHD-FROM-IBOUND) FLOW RATES   PERIOD      9   STEP        8
 -----------------------------------------------
   NUMBER   CELLID                    RATE      
 -----------------------------------------------
     1      (1,1,1)              -1278.1841     
     2      (1,1,2)              -1278.1815     
     3      (1,1,3)              -1278.1807     
     4      (1,1,4)              -1278.1815     
     5      (1,1,5)              -1278.1829     
     6      (1,1,6)              -1278.1843     
     7      (1,1,7)              -1278.1856     
     8      (1,1,8)              -1278.1873     
     9      (1,1,9)              -1278.1890     
     10     (1,21,1)             -1278.1876     
     11     (1,21,2)             -1278.1858     
     12     (1,21,3)             -1278.1842     
     13     (1,21,4)             -1278.1828     
     14     (1,21,5)             -1278.1815     
     15     (1,21,6)             -1278.1806     
     16     (1,21,7)             -1278.1810     
     17     (1,21,8)             -1278.1836     
     18     (1,21,9)             -1278.1879     
 -----------------------------------------------




 HEAD WILL BE SAVED ON UNIT 1016 AT END OF TIME STEP    8, STRESS PERIOD    9


  VOLUME BUDGET FOR ENTIRE MODEL AT END OF TIME STEP    8, STRESS PERIOD   9
  ---------------------------------------------------------------------------------------------------

     CUMULATIVE VOLUME      L**3       RATES FOR THIS TIME STEP      L**3/T          PACKAGE NAME    
     ------------------                 ------------------------                     ----------------

           IN:                                      IN:
           ---                                      ---
              STO-SS =     1311887.3640                STO-SS =       20026.5823     STORAGE                          
              STO-SY =       55556.3597                STO-SY =         843.2298     STORAGE                          
                 WEL =           0.0000                   WEL =           0.0000     WEL-1                            
                RCHA =    16185150.0000                  RCHA =        2137.5000     RCH-1                            
                 CHD =           0.0000                   CHD =           0.0000     CHD-FROM-IBOUND                  

            TOTAL IN =    17552593.7236              TOTAL IN =       23007.3121

          OUT:                                     OUT:
          ----                                     ----
              STO-SS =    11507173.9247                STO-SS =           0.0000     STORAGE                          
              STO-SY =      480409.1271                STO-SY =           0.0000     STORAGE                          
                 WEL =           0.0000                   WEL =           0.0000     WEL-1                            
                RCHA =           0.0000                  RCHA =           0.0000     RCH-1                            
                 CHD =     5565022.4892                   CHD =       23007.3119     CHD-FROM-IBOUND                  

           TOTAL OUT =    17552605.5410             TOTAL OUT =       23007.3119

            IN - OUT =         -11.8173              IN - OUT =       1.3512E-04

 PERCENT DISCREPANCY =          -0.00     PERCENT DISCREPANCY =           0.00




         TIME SUMMARY AT END OF TIME STEP    8 IN STRESS PERIOD    9
                    SECONDS     MINUTES      HOURS       DAYS        YEARS
                    -----------------------------------------------------------
   TIME STEP LENGTH 5.81680E+05  9694.7      161.58      6.7324     1.84323E-02
 STRESS PERIOD TIME 2.67840E+06  44640.      744.00      31.000     8.48734E-02
         TOTAL TIME 2.10816E+07 3.51360E+05  5856.0      244.00     0.66804    


end timestep


start timestep kper="10" kstp="1" mode="normal"


 OUTPUT CONTROL FOR STRESS PERIOD 10 IS REPEATED USING SETTINGS FROM A PREVIOUS STRESS PERIOD.


 STRESS PERIOD 10 IS TRANSIENT


 REUSING WELS FROM LAST STRESS PERIOD

 REUSING RCHS FROM LAST STRESS PERIOD

 REUSING CHDS FROM LAST STRESS PERIOD
 UBDSV1 SAVING     FLOW-JA-FACE ON UNIT   1015 AT TIME STEP      1, STRESS PERIOD     10
 UBDSV06 SAVING              WEL IN MODEL MUMODEL          PACKAGE MUMODEL         CONNECTED TO MODEL MUMODEL          PACKAGE WEL-1            ON UNIT   1015 AT TIME STEP      1, STRESS PERIOD     10
 UBDSV06 SAVING             RCHA IN MODEL MUMODEL          PACKAGE MUMODEL         CONNECTED TO MODEL MUMODEL          PACKAGE RCH-1            ON UNIT   1015 AT TIME STEP      1, STRESS PERIOD     10

 WEL PACKAGE (WEL-1) FLOW RATES   PERIOD     10   STEP        1
 -----------------------------------------------
   NUMBER   CELLID                    RATE      
 -----------------------------------------------
     1      (1,5,5)               0.0000000     
     2      (1,11,5)              0.0000000     
     3      (1,5,5)               0.0000000     
 -----------------------------------------------




 CHD PACKAGE (CHD-FROM-IBOUND) FLOW RATES   PERIOD     10   STEP        1
 -----------------------------------------------
   NUMBER   CELLID                    RATE      
 -----------------------------------------------
     1      (1,1,1)              -1277.5931     
     2      (1,1,2)              -1277.5905     
     3      (1,1,3)              -1277.5897     
     4      (1,1,4)              -1277.5906     
     5      (1,1,5)              -1277.5920     
     6      (1,1,6)              -1277.5933     
     7      (1,1,7)              -1277.5947     
     8      (1,1,8)              -1277.5963     
     9      (1,1,9)              -1277.5980     
     10     (1,21,1)             -1277.5966     
     11     (1,21,2)             -1277.5948     
     12     (1,21,3)             -1277.5932     
     13     (1,21,4)             -1277.5919     
     14     (1,21,5)             -1277.5906     
     15     (1,21,6)             -1277.5897     
     16     (1,21,7)             -1277.5901     
     17     (1,21,8)             -1277.5927     
     18     (1,21,9)             -1277.5969     
 -----------------------------------------------




 HEAD WILL BE SAVED ON UNIT 1016 AT END OF TIME STEP    1, STRESS PERIOD   10


  VOLUME BUDGET FOR ENTIRE MODEL AT END OF TIME STEP    1, STRESS PERIOD  10
  ---------------------------------------------------------------------------------------------------

     CUMULATIVE VOLUME      L**3       RATES FOR THIS TIME STEP      L**3/T          PACKAGE NAME    
     ------------------                 ------------------------                     ----------------

           IN:                                      IN:
           ---                                      ---
              STO-SS =     1348282.5629                STO-SS =       20016.2491     STORAGE                          
              STO-SY =       57088.7484                STO-SY =         842.7670     STORAGE                          
                 WEL =           0.0000                   WEL =           0.0000     WEL-1                            
                RCHA =    16189036.5792                  RCHA =        2137.5000     RCH-1                            
                 CHD =           0.0000                   CHD =           0.0000     CHD-FROM-IBOUND                  

            TOTAL IN =    17594407.8905              TOTAL IN =       22996.5161

          OUT:                                     OUT:
          ----                                     ----
              STO-SS =    11507173.9247                STO-SS =           0.0000     STORAGE                          
              STO-SY =      480409.1271                STO-SY =           0.0000     STORAGE                          
                 WEL =           0.0000                   WEL =           0.0000     WEL-1                            
                RCHA =           0.0000                  RCHA =           0.0000     RCH-1                            
                 CHD =     5606836.9447                   CHD =       22996.6749     CHD-FROM-IBOUND                  

           TOTAL OUT =    17594419.9965             TOTAL OUT =       22996.6749

            IN - OUT =         -12.1060              IN - OUT =          -0.1588

 PERCENT DISCREPANCY =          -0.00     PERCENT DISCREPANCY =          -0.00




         TIME SUMMARY AT END OF TIME STEP    1 IN STRESS PERIOD   10
                    SECONDS     MINUTES      HOURS       DAYS        YEARS
                    -----------------------------------------------------------
   TIME STEP LENGTH 1.57100E+05  2618.3      43.639      1.8183     4.97819E-03
 STRESS PERIOD TIME 1.57100E+05  2618.3      43.639      1.8183     4.97819E-03
         TOTAL TIME 2.12387E+07 3.53978E+05  5899.6      245.82     0.67301    


end timestep


start timestep kper="10" kstp="2" mode="normal"

 UBDSV1 SAVING     FLOW-JA-FACE ON UNIT   1015 AT TIME STEP      2, STRESS PERIOD     10
 UBDSV06 SAVING              WEL IN MODEL MUMODEL          PACKAGE MUMODEL         CONNECTED TO MODEL MUMODEL          PACKAGE WEL-1            ON UNIT   1015 AT TIME STEP      2, STRESS PERIOD     10
 UBDSV06 SAVING             RCHA IN MODEL MUMODEL          PACKAGE MUMODEL         CONNECTED TO MODEL MUMODEL          PACKAGE RCH-1            ON UNIT   1015 AT TIME STEP      2, STRESS PERIOD     10

 WEL PACKAGE (WEL-1) FLOW RATES   PERIOD     10   STEP        2
 -----------------------------------------------
   NUMBER   CELLID                    RATE      
 -----------------------------------------------
     1      (1,5,5)               0.0000000     
     2      (1,11,5)              0.0000000     
     3      (1,5,5)               0.0000000     
 -----------------------------------------------




 CHD PACKAGE (CHD-FROM-IBOUND) FLOW RATES   PERIOD     10   STEP        2
 -----------------------------------------------
   NUMBER   CELLID                    RATE      
 -----------------------------------------------
     1      (1,1,1)              -1276.8709     
     2      (1,1,2)              -1276.8683     
     3      (1,1,3)              -1276.8675     
     4      (1,1,4)              -1276.8683     
     5      (1,1,5)              -1276.8697     
     6      (1,1,6)              -1276.8711     
     7      (1,1,7)              -1276.8724     
     8      (1,1,8)              -1276.8741     
     9      (1,1,9)              -1276.8757     
     10     (1,21,1)             -1276.8744     
     11     (1,21,2)             -1276.8725     
     12     (1,21,3)             -1276.8709     
     13     (1,21,4)             -1276.8696     
     14     (1,21,5)             -1276.8683     
     15     (1,21,6)             -1276.8675     
     16     (1,21,7)             -1276.8678     
     17     (1,21,8)             -1276.8704     
     18     (1,21,9)             -1276.8747     
 -----------------------------------------------




 HEAD WILL BE SAVED ON UNIT 1016 AT END OF TIME STEP    2, STRESS PERIOD   10


  VOLUME BUDGET FOR ENTIRE MODEL AT END OF TIME STEP    2, STRESS PERIOD  10
  ---------------------------------------------------------------------------------------------------

     CUMULATIVE VOLUME      L**3       RATES FOR THIS TIME STEP      L**3/T          PACKAGE NAME    
     ------------------                 ------------------------                     ----------------

           IN:                                      IN:
           ---                                      ---
              STO-SS =     1391929.6317                STO-SS =       20003.7969     STORAGE                          
              STO-SY =       58926.3495                STO-SY =         842.1871     STORAGE                          
                 WEL =           0.0000                   WEL =           0.0000     WEL-1                            
                RCHA =    16193700.4743                  RCHA =        2137.5000     RCH-1                            
                 CHD =           0.0000                   CHD =           0.0000     CHD-FROM-IBOUND                  

            TOTAL IN =    17644556.4554              TOTAL IN =       22983.4841

          OUT:                                     OUT:
          ----                                     ----
              STO-SS =    11507173.9247                STO-SS =           0.0000     STORAGE                          
              STO-SY =      480409.1271                STO-SY =           0.0000     STORAGE                          
                 WEL =           0.0000                   WEL =           0.0000     WEL-1                            
                RCHA =           0.0000                  RCHA =           0.0000     RCH-1                            
                 CHD =     5656985.9244                   CHD =       22983.6741     CHD-FROM-IBOUND                  

           TOTAL OUT =    17644568.9762             TOTAL OUT =       22983.6741

            IN - OUT =         -12.5208              IN - OUT =          -0.1901

 PERCENT DISCREPANCY =          -0.00     PERCENT DISCREPANCY =          -0.00




         TIME SUMMARY AT END OF TIME STEP    2 IN STRESS PERIOD   10
                    SECONDS     MINUTES      HOURS       DAYS        YEARS
                    -----------------------------------------------------------
   TIME STEP LENGTH 1.88520E+05  3142.0      52.367      2.1819     5.97382E-03
 STRESS PERIOD TIME 3.45619E+05  5760.3      96.005      4.0002     1.09520E-02
         TOTAL TIME 2.14272E+07 3.57120E+05  5952.0      248.00     0.67899    


end timestep


start timestep kper="10" kstp="3" mode="normal"

 UBDSV1 SAVING     FLOW-JA-FACE ON UNIT   1015 AT TIME STEP      3, STRESS PERIOD     10
 UBDSV06 SAVING              WEL IN MODEL MUMODEL          PACKAGE MUMODEL         CONNECTED TO MODEL MUMODEL          PACKAGE WEL-1            ON UNIT   1015 AT TIME STEP      3, STRESS PERIOD     10
 UBDSV06 SAVING             RCHA IN MODEL MUMODEL          PACKAGE MUMODEL         CONNECTED TO MODEL MUMODEL          PACKAGE RCH-1            ON UNIT   1015 AT TIME STEP      3, STRESS PERIOD     10

 WEL PACKAGE (WEL-1) FLOW RATES   PERIOD     10   STEP        3
 -----------------------------------------------
   NUMBER   CELLID                    RATE      
 -----------------------------------------------
     1      (1,5,5)               0.0000000     
     2      (1,11,5)              0.0000000     
     3      (1,5,5)               0.0000000     
 -----------------------------------------------




 CHD PACKAGE (CHD-FROM-IBOUND) FLOW RATES   PERIOD     10   STEP        3
 -----------------------------------------------
   NUMBER   CELLID                    RATE      
 -----------------------------------------------
     1      (1,1,1)              -1276.0094     
     2      (1,1,2)              -1276.0068     
     3      (1,1,3)              -1276.0060     
     4      (1,1,4)              -1276.0068     
     5      (1,1,5)              -1276.0082     
     6      (1,1,6)              -1276.0096     
     7      (1,1,7)              -1276.0109     
     8      (1,1,8)              -1276.0126     
     9      (1,1,9)              -1276.0142     
     10     (1,21,1)             -1276.0128     
     11     (1,21,2)             -1276.0110     
     12     (1,21,3)             -1276.0094     
     13     (1,21,4)             -1276.0081     
     14     (1,21,5)             -1276.0069     
     15     (1,21,6)             -1276.0060     
     16     (1,21,7)             -1276.0064     
     17     (1,21,8)             -1276.0090     
     18     (1,21,9)             -1276.0132     
 -----------------------------------------------




 HEAD WILL BE SAVED ON UNIT 1016 AT END OF TIME STEP    3, STRESS PERIOD   10


  VOLUME BUDGET FOR ENTIRE MODEL AT END OF TIME STEP    3, STRESS PERIOD  10
  ---------------------------------------------------------------------------------------------------

     CUMULATIVE VOLUME      L**3       RATES FOR THIS TIME STEP      L**3/T          PACKAGE NAME    
     ------------------                 ------------------------                     ----------------

           IN:                                      IN:
           ---                                      ---
              STO-SS =     1444267.2249                STO-SS =       19988.9442     STORAGE                          
              STO-SY =       61129.6602                STO-SY =         841.4956     STORAGE                          
                 WEL =           0.0000                   WEL =           0.0000     WEL-1                            
                RCHA =    16199297.1483                  RCHA =        2137.5000     RCH-1                            
                 CHD =           0.0000                   CHD =           0.0000     CHD-FROM-IBOUND                  

            TOTAL IN =    17704694.0334              TOTAL IN =       22967.9398

          OUT:                                     OUT:
          ----                                     ----
              STO-SS =    11507173.9247                STO-SS =           0.0000     STORAGE                          
              STO-SY =      480409.1271                STO-SY =           0.0000     STORAGE                          
                 WEL =           0.0000                   WEL =           0.0000     WEL-1                            
                RCHA =           0.0000                  RCHA =           0.0000     RCH-1                            
                 CHD =     5717124.0980                   CHD =       22968.1673     CHD-FROM-IBOUND                  

           TOTAL OUT =    17704707.1498             TOTAL OUT =       22968.1673

            IN - OUT =         -13.1164              IN - OUT =          -0.2275

 PERCENT DISCREPANCY =          -0.00     PERCENT DISCREPANCY =          -0.00




         TIME SUMMARY AT END OF TIME STEP    3 IN STRESS PERIOD   10
                    SECONDS     MINUTES      HOURS       DAYS        YEARS
                    -----------------------------------------------------------
   TIME STEP LENGTH 2.26223E+05  3770.4      62.840      2.6183     7.16859E-03
 STRESS PERIOD TIME 5.71843E+05  9530.7      158.85      6.6185     1.81206E-02
         TOTAL TIME 2.16534E+07 3.60891E+05  6014.8      250.62     0.68616    


end timestep


start timestep kper="10" kstp="4" mode="normal"

 UBDSV1 SAVING     FLOW-JA-FACE ON UNIT   1015 AT TIME STEP      4, STRESS PERIOD     10
 UBDSV06 SAVING              WEL IN MODEL MUMODEL          PACKAGE MUMODEL         CONNECTED TO MODEL MUMODEL          PACKAGE WEL-1            ON UNIT   1015 AT TIME STEP      4, STRESS PERIOD     10
 UBDSV06 SAVING             RCHA IN MODEL MUMODEL          PACKAGE MUMODEL         CONNECTED TO MODEL MUMODEL          PACKAGE RCH-1            ON UNIT   1015 AT TIME STEP      4, STRESS PERIOD     10

 WEL PACKAGE (WEL-1) FLOW RATES   PERIOD     10   STEP        4
 -----------------------------------------------
   NUMBER   CELLID                    RATE      
 -----------------------------------------------
     1      (1,5,5)               0.0000000     
     2      (1,11,5)              0.0000000     
     3      (1,5,5)               0.0000000     
 -----------------------------------------------




 CHD PACKAGE (CHD-FROM-IBOUND) FLOW RATES   PERIOD     10   STEP        4
 -----------------------------------------------
   NUMBER   CELLID                    RATE      
 -----------------------------------------------
     1      (1,1,1)              -1274.9830     
     2      (1,1,2)              -1274.9805     
     3      (1,1,3)              -1274.9797     
     4      (1,1,4)              -1274.9805     
     5      (1,1,5)              -1274.9819     
     6      (1,1,6)              -1274.9832     
     7      (1,1,7)              -1274.9845     
     8      (1,1,8)              -1274.9862     
     9      (1,1,9)              -1274.9878     
     10     (1,21,1)             -1274.9864     
     11     (1,21,2)             -1274.9846     
     12     (1,21,3)             -1274.9831     
     13     (1,21,4)             -1274.9818     
     14     (1,21,5)             -1274.9805     
     15     (1,21,6)             -1274.9797     
     16     (1,21,7)             -1274.9800     
     17     (1,21,8)             -1274.9827     
     18     (1,21,9)             -1274.9868     
 -----------------------------------------------




 HEAD WILL BE SAVED ON UNIT 1016 AT END OF TIME STEP    4, STRESS PERIOD   10


  VOLUME BUDGET FOR ENTIRE MODEL AT END OF TIME STEP    4, STRESS PERIOD  10
  ---------------------------------------------------------------------------------------------------

     CUMULATIVE VOLUME      L**3       RATES FOR THIS TIME STEP      L**3/T          PACKAGE NAME    
     ------------------                 ------------------------                     ----------------

           IN:                                      IN:
           ---                                      ---
              STO-SS =     1507016.7376                STO-SS =       19971.2487     STORAGE                          
              STO-SY =       63771.0451                STO-SY =         840.6720     STORAGE                          
                 WEL =           0.0000                   WEL =           0.0000     WEL-1                            
                RCHA =    16206013.1572                  RCHA =        2137.5000     RCH-1                            
                 CHD =           0.0000                   CHD =           0.0000     CHD-FROM-IBOUND                  

            TOTAL IN =    17776800.9399              TOTAL IN =       22949.4206

          OUT:                                     OUT:
          ----                                     ----
              STO-SS =    11507173.9247                STO-SS =           0.0000     STORAGE                          
              STO-SY =      480409.1271                STO-SY =           0.0000     STORAGE                          
                 WEL =           0.0000                   WEL =           0.0000     WEL-1                            
                RCHA =           0.0000                  RCHA =           0.0000     RCH-1                            
                 CHD =     5789231.8596                   CHD =       22949.6928     CHD-FROM-IBOUND                  

           TOTAL OUT =    17776814.9114             TOTAL OUT =       22949.6928

            IN - OUT =         -13.9715              IN - OUT =          -0.2721

 PERCENT DISCREPANCY =          -0.00     PERCENT DISCREPANCY =          -0.00




         TIME SUMMARY AT END OF TIME STEP    4 IN STRESS PERIOD   10
                    SECONDS     MINUTES      HOURS       DAYS        YEARS
                    -----------------------------------------------------------
   TIME STEP LENGTH 2.71468E+05  4524.5      75.408      3.1420     8.60231E-03
 STRESS PERIOD TIME 8.43311E+05  14055.      234.25      9.7605     2.67229E-02
         TOTAL TIME 2.19249E+07 3.65415E+05  6090.3      253.76     0.69476    


end timestep


start timestep kper="10" kstp="5" mode="normal"

 UBDSV1 SAVING     FLOW-JA-FACE ON UNIT   1015 AT TIME STEP      5, STRESS PERIOD     10
 UBDSV06 SAVING              WEL IN MODEL MUMODEL          PACKAGE MUMODEL         CONNECTED TO MODEL MUMODEL          PACKAGE WEL-1            ON UNIT   1015 AT TIME STEP      5, STRESS PERIOD     10
 UBDSV06 SAVING             RCHA IN MODEL MUMODEL          PACKAGE MUMODEL         CONNECTED TO MODEL MUMODEL          PACKAGE RCH-1            ON UNIT   1015 AT TIME STEP      5, STRESS PERIOD     10

 WEL PACKAGE (WEL-1) FLOW RATES   PERIOD     10   STEP        5
 -----------------------------------------------
   NUMBER   CELLID                    RATE      
 -----------------------------------------------
     1      (1,5,5)               0.0000000     
     2      (1,11,5)              0.0000000     
     3      (1,5,5)               0.0000000     
 -----------------------------------------------




 CHD PACKAGE (CHD-FROM-IBOUND) FLOW RATES   PERIOD     10   STEP        5
 -----------------------------------------------
   NUMBER   CELLID                    RATE      
 -----------------------------------------------
     1      (1,1,1)              -1273.7281     
     2      (1,1,2)              -1273.7256     
     3      (1,1,3)              -1273.7248     
     4      (1,1,4)              -1273.7256     
     5      (1,1,5)              -1273.7269     
     6      (1,1,6)              -1273.7282     
     7      (1,1,7)              -1273.7296     
     8      (1,1,8)              -1273.7312     
     9      (1,1,9)              -1273.7329     
     10     (1,21,1)             -1273.7315     
     11     (1,21,2)             -1273.7297     
     12     (1,21,3)             -1273.7281     
     13     (1,21,4)             -1273.7268     
     14     (1,21,5)             -1273.7256     
     15     (1,21,6)             -1273.7248     
     16     (1,21,7)             -1273.7252     
     17     (1,21,8)             -1273.7278     
     18     (1,21,9)             -1273.7319     
 -----------------------------------------------




 HEAD WILL BE SAVED ON UNIT 1016 AT END OF TIME STEP    5, STRESS PERIOD   10


  VOLUME BUDGET FOR ENTIRE MODEL AT END OF TIME STEP    5, STRESS PERIOD  10
  ---------------------------------------------------------------------------------------------------

     CUMULATIVE VOLUME      L**3       RATES FOR THIS TIME STEP      L**3/T          PACKAGE NAME    
     ------------------                 ------------------------                     ----------------

           IN:                                      IN:
           ---                                      ---
              STO-SS =     1582235.7423                STO-SS =       19949.9218     STORAGE                          
              STO-SY =       66936.9755                STO-SY =         839.6823     STORAGE                          
                 WEL =           0.0000                   WEL =           0.0000     WEL-1                            
                RCHA =    16214072.3679                  RCHA =        2137.5000     RCH-1                            
                 CHD =           0.0000                   CHD =           0.0000     CHD-FROM-IBOUND                  

            TOTAL IN =    17863245.0857              TOTAL IN =       22927.1041

          OUT:                                     OUT:
          ----                                     ----
              STO-SS =    11507173.9247                STO-SS =           0.0000     STORAGE                          
              STO-SY =      480409.1271                STO-SY =           0.0000     STORAGE                          
                 WEL =           0.0000                   WEL =           0.0000     WEL-1                            
                RCHA =           0.0000                  RCHA =           0.0000     RCH-1                            
                 CHD =     5875676.0053                   CHD =       22927.1041     CHD-FROM-IBOUND                  

           TOTAL OUT =    17863259.0571             TOTAL OUT =       22927.1041

            IN - OUT =         -13.9714              IN - OUT =       2.5306E-05

 PERCENT DISCREPANCY =          -0.00     PERCENT DISCREPANCY =           0.00




         TIME SUMMARY AT END OF TIME STEP    5 IN STRESS PERIOD   10
                    SECONDS     MINUTES      HOURS       DAYS        YEARS
                    -----------------------------------------------------------
   TIME STEP LENGTH 3.25762E+05  5429.4      90.489      3.7704     1.03228E-02
 STRESS PERIOD TIME 1.16907E+06  19485.      324.74      13.531     3.70457E-02
         TOTAL TIME 2.22507E+07 3.70845E+05  6180.7      257.53     0.70508    


end timestep


start timestep kper="10" kstp="6" mode="normal"

 UBDSV1 SAVING     FLOW-JA-FACE ON UNIT   1015 AT TIME STEP      6, STRESS PERIOD     10
 UBDSV06 SAVING              WEL IN MODEL MUMODEL          PACKAGE MUMODEL         CONNECTED TO MODEL MUMODEL          PACKAGE WEL-1            ON UNIT   1015 AT TIME STEP      6, STRESS PERIOD     10
 UBDSV06 SAVING             RCHA IN MODEL MUMODEL          PACKAGE MUMODEL         CONNECTED TO MODEL MUMODEL          PACKAGE RCH-1            ON UNIT   1015 AT TIME STEP      6, STRESS PERIOD     10

 WEL PACKAGE (WEL-1) FLOW RATES   PERIOD     10   STEP        6
 -----------------------------------------------
   NUMBER   CELLID                    RATE      
 -----------------------------------------------
     1      (1,5,5)               0.0000000     
     2      (1,11,5)              0.0000000     
     3      (1,5,5)               0.0000000     
 -----------------------------------------------




 CHD PACKAGE (CHD-FROM-IBOUND) FLOW RATES   PERIOD     10   STEP        6
 -----------------------------------------------
   NUMBER   CELLID                    RATE      
 -----------------------------------------------
     1      (1,1,1)              -1272.2712     
     2      (1,1,2)              -1272.2687     
     3      (1,1,3)              -1272.2679     
     4      (1,1,4)              -1272.2687     
     5      (1,1,5)              -1272.2700     
     6      (1,1,6)              -1272.2713     
     7      (1,1,7)              -1272.2727     
     8      (1,1,8)              -1272.2743     
     9      (1,1,9)              -1272.2759     
     10     (1,21,1)             -1272.2745     
     11     (1,21,2)             -1272.2728     
     12     (1,21,3)             -1272.2712     
     13     (1,21,4)             -1272.2699     
     14     (1,21,5)             -1272.2687     
     15     (1,21,6)             -1272.2679     
     16     (1,21,7)             -1272.2683     
     17     (1,21,8)             -1272.2709     
     18     (1,21,9)             -1272.2750     
 -----------------------------------------------




 HEAD WILL BE SAVED ON UNIT 1016 AT END OF TIME STEP    6, STRESS PERIOD   10


  VOLUME BUDGET FOR ENTIRE MODEL AT END OF TIME STEP    6, STRESS PERIOD  10
  ---------------------------------------------------------------------------------------------------

     CUMULATIVE VOLUME      L**3       RATES FOR THIS TIME STEP      L**3/T          PACKAGE NAME    
     ------------------                 ------------------------                     ----------------

           IN:                                      IN:
           ---                                      ---
              STO-SS =     1672385.1686                STO-SS =       19924.8627     STORAGE                          
              STO-SY =       70730.8213                STO-SY =         838.5173     STORAGE                          
                 WEL =           0.0000                   WEL =           0.0000     WEL-1                            
                RCHA =    16223743.4206                  RCHA =        2137.5000     RCH-1                            
                 CHD =           0.0000                   CHD =           0.0000     CHD-FROM-IBOUND                  

            TOTAL IN =    17966859.4106              TOTAL IN =       22900.8800

          OUT:                                     OUT:
          ----                                     ----
              STO-SS =    11507173.9247                STO-SS =           0.0000     STORAGE                          
              STO-SY =      480409.1271                STO-SY =           0.0000     STORAGE                          
                 WEL =           0.0000                   WEL =           0.0000     WEL-1                            
                RCHA =           0.0000                  RCHA =           0.0000     RCH-1                            
                 CHD =     5979290.3300                   CHD =       22900.8800     CHD-FROM-IBOUND                  

           TOTAL OUT =    17966873.3818             TOTAL OUT =       22900.8800

            IN - OUT =         -13.9712              IN - OUT =       3.7073E-05

 PERCENT DISCREPANCY =          -0.00     PERCENT DISCREPANCY =           0.00




         TIME SUMMARY AT END OF TIME STEP    6 IN STRESS PERIOD   10
                    SECONDS     MINUTES      HOURS       DAYS        YEARS
                    -----------------------------------------------------------
   TIME STEP LENGTH 3.90914E+05  6515.2      108.59      4.5245     1.23873E-02
 STRESS PERIOD TIME 1.55999E+06  26000.      433.33      18.055     4.94330E-02
         TOTAL TIME 2.26416E+07 3.77360E+05  6289.3      262.06     0.71747    


end timestep


start timestep kper="10" kstp="7" mode="normal"

 UBDSV1 SAVING     FLOW-JA-FACE ON UNIT   1015 AT TIME STEP      7, STRESS PERIOD     10
 UBDSV06 SAVING              WEL IN MODEL MUMODEL          PACKAGE MUMODEL         CONNECTED TO MODEL MUMODEL          PACKAGE WEL-1            ON UNIT   1015 AT TIME STEP      7, STRESS PERIOD     10
 UBDSV06 SAVING             RCHA IN MODEL MUMODEL          PACKAGE MUMODEL         CONNECTED TO MODEL MUMODEL          PACKAGE RCH-1            ON UNIT   1015 AT TIME STEP      7, STRESS PERIOD     10

 WEL PACKAGE (WEL-1) FLOW RATES   PERIOD     10   STEP        7
 -----------------------------------------------
   NUMBER   CELLID                    RATE      
 -----------------------------------------------
     1      (1,5,5)               0.0000000     
     2      (1,11,5)              0.0000000     
     3      (1,5,5)               0.0000000     
 -----------------------------------------------




 CHD PACKAGE (CHD-FROM-IBOUND) FLOW RATES   PERIOD     10   STEP        7
 -----------------------------------------------
   NUMBER   CELLID                    RATE      
 -----------------------------------------------
     1      (1,1,1)              -1270.5441     
     2      (1,1,2)              -1270.5416     
     3      (1,1,3)              -1270.5408     
     4      (1,1,4)              -1270.5416     
     5      (1,1,5)              -1270.5429     
     6      (1,1,6)              -1270.5442     
     7      (1,1,7)              -1270.5455     
     8      (1,1,8)              -1270.5472     
     9      (1,1,9)              -1270.5488     
     10     (1,21,1)             -1270.5473     
     11     (1,21,2)             -1270.5456     
     12     (1,21,3)             -1270.5441     
     13     (1,21,4)             -1270.5428     
     14     (1,21,5)             -1270.5416     
     15     (1,21,6)             -1270.5408     
     16     (1,21,7)             -1270.5413     
     17     (1,21,8)             -1270.5439     
     18     (1,21,9)             -1270.5479     
 -----------------------------------------------




 HEAD WILL BE SAVED ON UNIT 1016 AT END OF TIME STEP    7, STRESS PERIOD   10


  VOLUME BUDGET FOR ENTIRE MODEL AT END OF TIME STEP    7, STRESS PERIOD  10
  ---------------------------------------------------------------------------------------------------

     CUMULATIVE VOLUME      L**3       RATES FOR THIS TIME STEP      L**3/T          PACKAGE NAME    
     ------------------                 ------------------------                     ----------------

           IN:                                      IN:
           ---                                      ---
              STO-SS =     1780403.1874                STO-SS =       19895.1552     STORAGE                          
              STO-SY =       75275.9419                STO-SY =         837.1370     STORAGE                          
                 WEL =           0.0000                   WEL =           0.0000     WEL-1                            
                RCHA =    16235348.6840                  RCHA =        2137.5000     RCH-1                            
                 CHD =           0.0000                   CHD =           0.0000     CHD-FROM-IBOUND                  

            TOTAL IN =    18091027.8133              TOTAL IN =       22869.7922

          OUT:                                     OUT:
          ----                                     ----
              STO-SS =    11507173.9247                STO-SS =           0.0000     STORAGE                          
              STO-SY =      480409.1271                STO-SY =           0.0000     STORAGE                          
                 WEL =           0.0000                   WEL =           0.0000     WEL-1                            
                RCHA =           0.0000                  RCHA =           0.0000     RCH-1                            
                 CHD =     6103458.7324                   CHD =       22869.7921     CHD-FROM-IBOUND                  

           TOTAL OUT =    18091041.7842             TOTAL OUT =       22869.7921

            IN - OUT =         -13.9709              IN - OUT =       6.2380E-05

 PERCENT DISCREPANCY =          -0.00     PERCENT DISCREPANCY =           0.00




         TIME SUMMARY AT END OF TIME STEP    7 IN STRESS PERIOD   10
                    SECONDS     MINUTES      HOURS       DAYS        YEARS
                    -----------------------------------------------------------
   TIME STEP LENGTH 4.69097E+05  7818.3      130.30      5.4294     1.48648E-02
 STRESS PERIOD TIME 2.02908E+06  33818.      563.63      23.485     6.42978E-02
         TOTAL TIME 2.31107E+07 3.85178E+05  6419.6      267.48     0.73233    


end timestep


start timestep kper="10" kstp="8" mode="normal"

 UBDSV1 SAVING     FLOW-JA-FACE ON UNIT   1015 AT TIME STEP      8, STRESS PERIOD     10
 UBDSV06 SAVING              WEL IN MODEL MUMODEL          PACKAGE MUMODEL         CONNECTED TO MODEL MUMODEL          PACKAGE WEL-1            ON UNIT   1015 AT TIME STEP      8, STRESS PERIOD     10
 UBDSV06 SAVING             RCHA IN MODEL MUMODEL          PACKAGE MUMODEL         CONNECTED TO MODEL MUMODEL          PACKAGE RCH-1            ON UNIT   1015 AT TIME STEP      8, STRESS PERIOD     10

 WEL PACKAGE (WEL-1) FLOW RATES   PERIOD     10   STEP        8
 -----------------------------------------------
   NUMBER   CELLID                    RATE      
 -----------------------------------------------
     1      (1,5,5)               0.0000000     
     2      (1,11,5)              0.0000000     
     3      (1,5,5)               0.0000000     
 -----------------------------------------------




 CHD PACKAGE (CHD-FROM-IBOUND) FLOW RATES   PERIOD     10   STEP        8
 -----------------------------------------------
   NUMBER   CELLID                    RATE      
 -----------------------------------------------
     1      (1,1,1)              -1268.5013     
     2      (1,1,2)              -1268.4989     
     3      (1,1,3)              -1268.4981     
     4      (1,1,4)              -1268.4988     
     5      (1,1,5)              -1268.5001     
     6      (1,1,6)              -1268.5014     
     7      (1,1,7)              -1268.5027     
     8      (1,1,8)              -1268.5043     
     9      (1,1,9)              -1268.5059     
     10     (1,21,1)             -1268.5045     
     11     (1,21,2)             -1268.5028     
     12     (1,21,3)             -1268.5013     
     13     (1,21,4)             -1268.5000     
     14     (1,21,5)             -1268.4989     
     15     (1,21,6)             -1268.4981     
     16     (1,21,7)             -1268.4986     
     17     (1,21,8)             -1268.5011     
     18     (1,21,9)             -1268.5051     
 -----------------------------------------------




 HEAD WILL BE SAVED ON UNIT 1016 AT END OF TIME STEP    8, STRESS PERIOD   10


  VOLUME BUDGET FOR ENTIRE MODEL AT END OF TIME STEP    8, STRESS PERIOD  10
  ---------------------------------------------------------------------------------------------------

     CUMULATIVE VOLUME      L**3       RATES FOR THIS TIME STEP      L**3/T          PACKAGE NAME    
     ------------------                 ------------------------                     ----------------

           IN:                                      IN:
           ---                                      ---
              STO-SS =     1909795.8735                STO-SS =       19860.0166     STORAGE                          
              STO-SY =       80719.4562                STO-SY =         835.5054     STORAGE                          
                 WEL =           0.0000                   WEL =           0.0000     WEL-1                            
                RCHA =    16249275.0000                  RCHA =        2137.5000     RCH-1                            
                 CHD =           0.0000                   CHD =           0.0000     CHD-FROM-IBOUND                  

            TOTAL IN =    18239790.3297              TOTAL IN =       22833.0219

          OUT:                                     OUT:
          ----                                     ----
              STO-SS =    11507173.9247                STO-SS =           0.0000     STORAGE                          
              STO-SY =      480409.1271                STO-SY =           0.0000     STORAGE                          
                 WEL =           0.0000                   WEL =           0.0000     WEL-1                            
                RCHA =           0.0000                  RCHA =           0.0000     RCH-1                            
                 CHD =     6252221.2482                   CHD =       22833.0218     CHD-FROM-IBOUND                  

           TOTAL OUT =    18239804.3000             TOTAL OUT =       22833.0218

            IN - OUT =         -13.9702              IN - OUT =       1.0138E-04

 PERCENT DISCREPANCY =          -0.00     PERCENT DISCREPANCY =           0.00




         TIME SUMMARY AT END OF TIME STEP    8 IN STRESS PERIOD   10
                    SECONDS     MINUTES      HOURS       DAYS        YEARS
                    -----------------------------------------------------------
   TIME STEP LENGTH 5.62916E+05  9381.9      156.37      6.5152     1.78377E-02
 STRESS PERIOD TIME 2.59200E+06  43200.      720.00      30.000     8.21355E-02
         TOTAL TIME 2.36736E+07 3.94560E+05  6576.0      274.00     0.75017    


end timestep


start timestep kper="11" kstp="1" mode="normal"


 OUTPUT CONTROL FOR STRESS PERIOD 11 IS REPEATED USING SETTINGS FROM A PREVIOUS STRESS PERIOD.


 STRESS PERIOD 11 IS TRANSIENT


 REUSING WELS FROM LAST STRESS PERIOD

 REUSING RCHS FROM LAST STRESS PERIOD

 REUSING CHDS FROM LAST STRESS PERIOD
 UBDSV1 SAVING     FLOW-JA-FACE ON UNIT   1015 AT TIME STEP      1, STRESS PERIOD     11
 UBDSV06 SAVING              WEL IN MODEL MUMODEL          PACKAGE MUMODEL         CONNECTED TO MODEL MUMODEL          PACKAGE WEL-1            ON UNIT   1015 AT TIME STEP      1, STRESS PERIOD     11
 UBDSV06 SAVING             RCHA IN MODEL MUMODEL          PACKAGE MUMODEL         CONNECTED TO MODEL MUMODEL          PACKAGE RCH-1            ON UNIT   1015 AT TIME STEP      1, STRESS PERIOD     11

 WEL PACKAGE (WEL-1) FLOW RATES   PERIOD     11   STEP        1
 -----------------------------------------------
   NUMBER   CELLID                    RATE      
 -----------------------------------------------
     1      (1,5,5)               0.0000000     
     2      (1,11,5)              0.0000000     
     3      (1,5,5)               0.0000000     
 -----------------------------------------------




 CHD PACKAGE (CHD-FROM-IBOUND) FLOW RATES   PERIOD     11   STEP        1
 -----------------------------------------------
   NUMBER   CELLID                    RATE      
 -----------------------------------------------
     1      (1,1,1)              -1267.9307     
     2      (1,1,2)              -1267.9283     
     3      (1,1,3)              -1267.9275     
     4      (1,1,4)              -1267.9282     
     5      (1,1,5)              -1267.9295     
     6      (1,1,6)              -1267.9308     
     7      (1,1,7)              -1267.9321     
     8      (1,1,8)              -1267.9337     
     9      (1,1,9)              -1267.9353     
     10     (1,21,1)             -1267.9339     
     11     (1,21,2)             -1267.9322     
     12     (1,21,3)             -1267.9307     
     13     (1,21,4)             -1267.9295     
     14     (1,21,5)             -1267.9283     
     15     (1,21,6)             -1267.9275     
     16     (1,21,7)             -1267.9280     
     17     (1,21,8)             -1267.9306     
     18     (1,21,9)             -1267.9345     
 -----------------------------------------------




 HEAD WILL BE SAVED ON UNIT 1016 AT END OF TIME STEP    1, STRESS PERIOD   11


  VOLUME BUDGET FOR ENTIRE MODEL AT END OF TIME STEP    1, STRESS PERIOD  11
  ---------------------------------------------------------------------------------------------------

     CUMULATIVE VOLUME      L**3       RATES FOR THIS TIME STEP      L**3/T          PACKAGE NAME    
     ------------------                 ------------------------                     ----------------

           IN:                                      IN:
           ---                                      ---
              STO-SS =     1947091.9443                STO-SS =       19850.0334     STORAGE                          
              STO-SY =       82288.4412                STO-SY =         835.0586     STORAGE                          
                 WEL =           0.0000                   WEL =           0.0000     WEL-1                            
                RCHA =    16253291.1319                  RCHA =        2137.5000     RCH-1                            
                 CHD =           0.0000                   CHD =           0.0000     CHD-FROM-IBOUND                  

            TOTAL IN =    18282671.5174              TOTAL IN =       22822.5920

          OUT:                                     OUT:
          ----                                     ----
              STO-SS =    11507173.9247                STO-SS =           0.0000     STORAGE                          
              STO-SY =      480409.1271                STO-SY =           0.0000     STORAGE                          
                 WEL =           0.0000                   WEL =           0.0000     WEL-1                            
                RCHA =           0.0000                  RCHA =           0.0000     RCH-1                            
                 CHD =     6295102.7353                   CHD =       22822.7514     CHD-FROM-IBOUND                  

           TOTAL OUT =    18282685.7871             TOTAL OUT =       22822.7514

            IN - OUT =         -14.2696              IN - OUT =          -0.1593

 PERCENT DISCREPANCY =          -0.00     PERCENT DISCREPANCY =          -0.00




         TIME SUMMARY AT END OF TIME STEP    1 IN STRESS PERIOD   11
                    SECONDS     MINUTES      HOURS       DAYS        YEARS
                    -----------------------------------------------------------
   TIME STEP LENGTH 1.62336E+05  2705.6      45.093      1.8789     5.14413E-03
 STRESS PERIOD TIME 1.62336E+05  2705.6      45.093      1.8789     5.14413E-03
         TOTAL TIME 2.38359E+07 3.97266E+05  6621.1      275.88     0.75532    


end timestep


start timestep kper="11" kstp="2" mode="normal"

 UBDSV1 SAVING     FLOW-JA-FACE ON UNIT   1015 AT TIME STEP      2, STRESS PERIOD     11
 UBDSV06 SAVING              WEL IN MODEL MUMODEL          PACKAGE MUMODEL         CONNECTED TO MODEL MUMODEL          PACKAGE WEL-1            ON UNIT   1015 AT TIME STEP      2, STRESS PERIOD     11
 UBDSV06 SAVING             RCHA IN MODEL MUMODEL          PACKAGE MUMODEL         CONNECTED TO MODEL MUMODEL          PACKAGE RCH-1            ON UNIT   1015 AT TIME STEP      2, STRESS PERIOD     11

 WEL PACKAGE (WEL-1) FLOW RATES   PERIOD     11   STEP        2
 -----------------------------------------------
   NUMBER   CELLID                    RATE      
 -----------------------------------------------
     1      (1,5,5)               0.0000000     
     2      (1,11,5)              0.0000000     
     3      (1,5,5)               0.0000000     
 -----------------------------------------------




 CHD PACKAGE (CHD-FROM-IBOUND) FLOW RATES   PERIOD     11   STEP        2
 -----------------------------------------------
   NUMBER   CELLID                    RATE      
 -----------------------------------------------
     1      (1,1,1)              -1267.2333     
     2      (1,1,2)              -1267.2310     
     3      (1,1,3)              -1267.2302     
     4      (1,1,4)              -1267.2309     
     5      (1,1,5)              -1267.2322     
     6      (1,1,6)              -1267.2335     
     7      (1,1,7)              -1267.2348     
     8      (1,1,8)              -1267.2364     
     9      (1,1,9)              -1267.2379     
     10     (1,21,1)             -1267.2365     
     11     (1,21,2)             -1267.2349     
     12     (1,21,3)             -1267.2334     
     13     (1,21,4)             -1267.2321     
     14     (1,21,5)             -1267.2310     
     15     (1,21,6)             -1267.2302     
     16     (1,21,7)             -1267.2307     
     17     (1,21,8)             -1267.2333     
     18     (1,21,9)             -1267.2371     
 -----------------------------------------------




 HEAD WILL BE SAVED ON UNIT 1016 AT END OF TIME STEP    2, STRESS PERIOD   11


  VOLUME BUDGET FOR ENTIRE MODEL AT END OF TIME STEP    2, STRESS PERIOD  11
  ---------------------------------------------------------------------------------------------------

     CUMULATIVE VOLUME      L**3       RATES FOR THIS TIME STEP      L**3/T          PACKAGE NAME    
     ------------------                 ------------------------                     ----------------

           IN:                                      IN:
           ---                                      ---
              STO-SS =     1991820.1172                STO-SS =       19838.0085     STORAGE                          
              STO-SY =       84169.9641                STO-SY =         834.5002     STORAGE                          
                 WEL =           0.0000                   WEL =           0.0000     WEL-1                            
                RCHA =    16258110.4901                  RCHA =        2137.5000     RCH-1                            
                 CHD =           0.0000                   CHD =           0.0000     CHD-FROM-IBOUND                  

            TOTAL IN =    18334100.5714              TOTAL IN =       22810.0087

          OUT:                                     OUT:
          ----                                     ----
              STO-SS =    11507173.9247                STO-SS =           0.0000     STORAGE                          
              STO-SY =      480409.1271                STO-SY =           0.0000     STORAGE                          
                 WEL =           0.0000                   WEL =           0.0000     WEL-1                            
                RCHA =           0.0000                  RCHA =           0.0000     RCH-1                            
                 CHD =     6346532.2195                   CHD =       22810.1995     CHD-FROM-IBOUND                  

           TOTAL OUT =    18334115.2713             TOTAL OUT =       22810.1995

            IN - OUT =         -14.6999              IN - OUT =          -0.1908

 PERCENT DISCREPANCY =          -0.00     PERCENT DISCREPANCY =          -0.00




         TIME SUMMARY AT END OF TIME STEP    2 IN STRESS PERIOD   11
                    SECONDS     MINUTES      HOURS       DAYS        YEARS
                    -----------------------------------------------------------
   TIME STEP LENGTH 1.94804E+05  3246.7      54.112      2.2547     6.17295E-03
 STRESS PERIOD TIME 3.57140E+05  5952.3      99.206      4.1336     1.13171E-02
         TOTAL TIME 2.40307E+07 4.00512E+05  6675.2      278.13     0.76149    


end timestep


start timestep kper="11" kstp="3" mode="normal"

 UBDSV1 SAVING     FLOW-JA-FACE ON UNIT   1015 AT TIME STEP      3, STRESS PERIOD     11
 UBDSV06 SAVING              WEL IN MODEL MUMODEL          PACKAGE MUMODEL         CONNECTED TO MODEL MUMODEL          PACKAGE WEL-1            ON UNIT   1015 AT TIME STEP      3, STRESS PERIOD     11
 UBDSV06 SAVING             RCHA IN MODEL MUMODEL          PACKAGE MUMODEL         CONNECTED TO MODEL MUMODEL          PACKAGE RCH-1            ON UNIT   1015 AT TIME STEP      3, STRESS PERIOD     11

 WEL PACKAGE (WEL-1) FLOW RATES   PERIOD     11   STEP        3
 -----------------------------------------------
   NUMBER   CELLID                    RATE      
 -----------------------------------------------
     1      (1,5,5)               0.0000000     
     2      (1,11,5)              0.0000000     
     3      (1,5,5)               0.0000000     
 -----------------------------------------------




 CHD PACKAGE (CHD-FROM-IBOUND) FLOW RATES   PERIOD     11   STEP        3
 -----------------------------------------------
   NUMBER   CELLID                    RATE      
 -----------------------------------------------
     1      (1,1,1)              -1266.4015     
     2      (1,1,2)              -1266.3992     
     3      (1,1,3)              -1266.3984     
     4      (1,1,4)              -1266.3991     
     5      (1,1,5)              -1266.4004     
     6      (1,1,6)              -1266.4017     
     7      (1,1,7)              -1266.4030     
     8      (1,1,8)              -1266.4046     
     9      (1,1,9)              -1266.4061     
     10     (1,21,1)             -1266.4046     
     11     (1,21,2)             -1266.4030     
     12     (1,21,3)             -1266.4015     
     13     (1,21,4)             -1266.4003     
     14     (1,21,5)             -1266.3991     
     15     (1,21,6)             -1266.3984     
     16     (1,21,7)             -1266.3989     
     17     (1,21,8)             -1266.4015     
     18     (1,21,9)             -1266.4053     
 -----------------------------------------------




 HEAD WILL BE SAVED ON UNIT 1016 AT END OF TIME STEP    3, STRESS PERIOD   11


  VOLUME BUDGET FOR ENTIRE MODEL AT END OF TIME STEP    3, STRESS PERIOD  11
  ---------------------------------------------------------------------------------------------------

     CUMULATIVE VOLUME      L**3       RATES FOR THIS TIME STEP      L**3/T          PACKAGE NAME    
     ------------------                 ------------------------                     ----------------

           IN:                                      IN:
           ---                                      ---
              STO-SS =     2045455.1141                STO-SS =       19823.6640     STORAGE                          
              STO-SY =       86425.9896                STO-SY =         833.8341     STORAGE                          
                 WEL =           0.0000                   WEL =           0.0000     WEL-1                            
                RCHA =    16263893.7199                  RCHA =        2137.5000     RCH-1                            
                 CHD =           0.0000                   CHD =           0.0000     CHD-FROM-IBOUND                  

            TOTAL IN =    18395774.8237              TOTAL IN =       22794.9982

          OUT:                                     OUT:
          ----                                     ----
              STO-SS =    11507173.9247                STO-SS =           0.0000     STORAGE                          
              STO-SY =      480409.1271                STO-SY =           0.0000     STORAGE                          
                 WEL =           0.0000                   WEL =           0.0000     WEL-1                            
                RCHA =           0.0000                  RCHA =           0.0000     RCH-1                            
                 CHD =     6408207.0898                   CHD =       22795.2266     CHD-FROM-IBOUND                  

           TOTAL OUT =    18395790.1416             TOTAL OUT =       22795.2266

            IN - OUT =         -15.3180              IN - OUT =          -0.2284

 PERCENT DISCREPANCY =          -0.00     PERCENT DISCREPANCY =          -0.00




         TIME SUMMARY AT END OF TIME STEP    3 IN STRESS PERIOD   11
                    SECONDS     MINUTES      HOURS       DAYS        YEARS
                    -----------------------------------------------------------
   TIME STEP LENGTH 2.33764E+05  3896.1      64.935      2.7056     7.40754E-03
 STRESS PERIOD TIME 5.90904E+05  9848.4      164.14      6.8392     1.87246E-02
         TOTAL TIME 2.42645E+07 4.04408E+05  6740.1      280.84     0.76890    


end timestep


start timestep kper="11" kstp="4" mode="normal"

 UBDSV1 SAVING     FLOW-JA-FACE ON UNIT   1015 AT TIME STEP      4, STRESS PERIOD     11
 UBDSV06 SAVING              WEL IN MODEL MUMODEL          PACKAGE MUMODEL         CONNECTED TO MODEL MUMODEL          PACKAGE WEL-1            ON UNIT   1015 AT TIME STEP      4, STRESS PERIOD     11
 UBDSV06 SAVING             RCHA IN MODEL MUMODEL          PACKAGE MUMODEL         CONNECTED TO MODEL MUMODEL          PACKAGE RCH-1            ON UNIT   1015 AT TIME STEP      4, STRESS PERIOD     11

 WEL PACKAGE (WEL-1) FLOW RATES   PERIOD     11   STEP        4
 -----------------------------------------------
   NUMBER   CELLID                    RATE      
 -----------------------------------------------
     1      (1,5,5)               0.0000000     
     2      (1,11,5)              0.0000000     
     3      (1,5,5)               0.0000000     
 -----------------------------------------------




 CHD PACKAGE (CHD-FROM-IBOUND) FLOW RATES   PERIOD     11   STEP        4
 -----------------------------------------------
   NUMBER   CELLID                    RATE      
 -----------------------------------------------
     1      (1,1,1)              -1265.4104     
     2      (1,1,2)              -1265.4081     
     3      (1,1,3)              -1265.4072     
     4      (1,1,4)              -1265.4080     
     5      (1,1,5)              -1265.4092     
     6      (1,1,6)              -1265.4105     
     7      (1,1,7)              -1265.4118     
     8      (1,1,8)              -1265.4134     
     9      (1,1,9)              -1265.4149     
     10     (1,21,1)             -1265.4135     
     11     (1,21,2)             -1265.4119     
     12     (1,21,3)             -1265.4104     
     13     (1,21,4)             -1265.4092     
     14     (1,21,5)             -1265.4080     
     15     (1,21,6)             -1265.4073     
     16     (1,21,7)             -1265.4078     
     17     (1,21,8)             -1265.4104     
     18     (1,21,9)             -1265.4142     
 -----------------------------------------------




 HEAD WILL BE SAVED ON UNIT 1016 AT END OF TIME STEP    4, STRESS PERIOD   11


  VOLUME BUDGET FOR ENTIRE MODEL AT END OF TIME STEP    4, STRESS PERIOD  11
  ---------------------------------------------------------------------------------------------------

     CUMULATIVE VOLUME      L**3       RATES FOR THIS TIME STEP      L**3/T          PACKAGE NAME    
     ------------------                 ------------------------                     ----------------

           IN:                                      IN:
           ---                                      ---
              STO-SS =     2109761.6170                STO-SS =       19806.5719     STORAGE                          
              STO-SY =       89130.6445                STO-SY =         833.0408     STORAGE                          
                 WEL =           0.0000                   WEL =           0.0000     WEL-1                            
                RCHA =    16270833.5958                  RCHA =        2137.5000     RCH-1                            
                 CHD =           0.0000                   CHD =           0.0000     CHD-FROM-IBOUND                  

            TOTAL IN =    18469725.8573              TOTAL IN =       22777.1127

          OUT:                                     OUT:
          ----                                     ----
              STO-SS =    11507173.9247                STO-SS =           0.0000     STORAGE                          
              STO-SY =      480409.1271                STO-SY =           0.0000     STORAGE                          
                 WEL =           0.0000                   WEL =           0.0000     WEL-1                            
                RCHA =           0.0000                  RCHA =           0.0000     RCH-1                            
                 CHD =     6482159.0110                   CHD =       22777.3861     CHD-FROM-IBOUND                  

           TOTAL OUT =    18469742.0628             TOTAL OUT =       22777.3861

            IN - OUT =         -16.2054              IN - OUT =          -0.2733

 PERCENT DISCREPANCY =          -0.00     PERCENT DISCREPANCY =          -0.00




         TIME SUMMARY AT END OF TIME STEP    4 IN STRESS PERIOD   11
                    SECONDS     MINUTES      HOURS       DAYS        YEARS
                    -----------------------------------------------------------
   TIME STEP LENGTH 2.80517E+05  4675.3      77.921      3.2467     8.88905E-03
 STRESS PERIOD TIME 8.71421E+05  14524.      242.06      10.086     2.76137E-02
         TOTAL TIME 2.45450E+07 4.09084E+05  6818.1      284.09     0.77778    


end timestep


start timestep kper="11" kstp="5" mode="normal"

 UBDSV1 SAVING     FLOW-JA-FACE ON UNIT   1015 AT TIME STEP      5, STRESS PERIOD     11
 UBDSV06 SAVING              WEL IN MODEL MUMODEL          PACKAGE MUMODEL         CONNECTED TO MODEL MUMODEL          PACKAGE WEL-1            ON UNIT   1015 AT TIME STEP      5, STRESS PERIOD     11
 UBDSV06 SAVING             RCHA IN MODEL MUMODEL          PACKAGE MUMODEL         CONNECTED TO MODEL MUMODEL          PACKAGE RCH-1            ON UNIT   1015 AT TIME STEP      5, STRESS PERIOD     11

 WEL PACKAGE (WEL-1) FLOW RATES   PERIOD     11   STEP        5
 -----------------------------------------------
   NUMBER   CELLID                    RATE      
 -----------------------------------------------
     1      (1,5,5)               0.0000000     
     2      (1,11,5)              0.0000000     
     3      (1,5,5)               0.0000000     
 -----------------------------------------------




 CHD PACKAGE (CHD-FROM-IBOUND) FLOW RATES   PERIOD     11   STEP        5
 -----------------------------------------------
   NUMBER   CELLID                    RATE      
 -----------------------------------------------
     1      (1,1,1)              -1264.1985     
     2      (1,1,2)              -1264.1963     
     3      (1,1,3)              -1264.1954     
     4      (1,1,4)              -1264.1961     
     5      (1,1,5)              -1264.1974     
     6      (1,1,6)              -1264.1987     
     7      (1,1,7)              -1264.2000     
     8      (1,1,8)              -1264.2015     
     9      (1,1,9)              -1264.2030     
     10     (1,21,1)             -1264.2016     
     11     (1,21,2)             -1264.2000     
     12     (1,21,3)             -1264.1985     
     13     (1,21,4)             -1264.1973     
     14     (1,21,5)             -1264.1962     
     15     (1,21,6)             -1264.1955     
     16     (1,21,7)             -1264.1960     
     17     (1,21,8)             -1264.1986     
     18     (1,21,9)             -1264.2023     
 -----------------------------------------------




 HEAD WILL BE SAVED ON UNIT 1016 AT END OF TIME STEP    5, STRESS PERIOD   11


  VOLUME BUDGET FOR ENTIRE MODEL AT END OF TIME STEP    5, STRESS PERIOD  11
  ---------------------------------------------------------------------------------------------------

     CUMULATIVE VOLUME      L**3       RATES FOR THIS TIME STEP      L**3/T          PACKAGE NAME    
     ------------------                 ------------------------                     ----------------

           IN:                                      IN:
           ---                                      ---
              STO-SS =     2186849.2110                STO-SS =       19785.9847     STORAGE                          
              STO-SY =       92372.5192                STO-SY =         832.0883     STORAGE                          
                 WEL =           0.0000                   WEL =           0.0000     WEL-1                            
                RCHA =    16279161.4468                  RCHA =        2137.5000     RCH-1                            
                 CHD =           0.0000                   CHD =           0.0000     CHD-FROM-IBOUND                  

            TOTAL IN =    18558383.1770              TOTAL IN =       22755.5729

          OUT:                                     OUT:
          ----                                     ----
              STO-SS =    11507173.9247                STO-SS =           0.0000     STORAGE                          
              STO-SY =      480409.1271                STO-SY =           0.0000     STORAGE                          
                 WEL =           0.0000                   WEL =           0.0000     WEL-1                            
                RCHA =           0.0000                  RCHA =           0.0000     RCH-1                            
                 CHD =     6570816.3306                   CHD =       22755.5729     CHD-FROM-IBOUND                  

           TOTAL OUT =    18558399.3824             TOTAL OUT =       22755.5729

            IN - OUT =         -16.2053              IN - OUT =       2.1371E-05

 PERCENT DISCREPANCY =          -0.00     PERCENT DISCREPANCY =           0.00




         TIME SUMMARY AT END OF TIME STEP    5 IN STRESS PERIOD   11
                    SECONDS     MINUTES      HOURS       DAYS        YEARS
                    -----------------------------------------------------------
   TIME STEP LENGTH 3.36621E+05  5610.3      93.506      3.8961     1.06669E-02
 STRESS PERIOD TIME 1.20804E+06  20134.      335.57      13.982     3.82805E-02
         TOTAL TIME 2.48816E+07 4.14694E+05  6911.6      287.98     0.78845    


end timestep


start timestep kper="11" kstp="6" mode="normal"

 UBDSV1 SAVING     FLOW-JA-FACE ON UNIT   1015 AT TIME STEP      6, STRESS PERIOD     11
 UBDSV06 SAVING              WEL IN MODEL MUMODEL          PACKAGE MUMODEL         CONNECTED TO MODEL MUMODEL          PACKAGE WEL-1            ON UNIT   1015 AT TIME STEP      6, STRESS PERIOD     11
 UBDSV06 SAVING             RCHA IN MODEL MUMODEL          PACKAGE MUMODEL         CONNECTED TO MODEL MUMODEL          PACKAGE RCH-1            ON UNIT   1015 AT TIME STEP      6, STRESS PERIOD     11

 WEL PACKAGE (WEL-1) FLOW RATES   PERIOD     11   STEP        6
 -----------------------------------------------
   NUMBER   CELLID                    RATE      
 -----------------------------------------------
     1      (1,5,5)               0.0000000     
     2      (1,11,5)              0.0000000     
     3      (1,5,5)               0.0000000     
 -----------------------------------------------




 CHD PACKAGE (CHD-FROM-IBOUND) FLOW RATES   PERIOD     11   STEP        6
 -----------------------------------------------
   NUMBER   CELLID                    RATE      
 -----------------------------------------------
     1      (1,1,1)              -1262.7912     
     2      (1,1,2)              -1262.7890     
     3      (1,1,3)              -1262.7881     
     4      (1,1,4)              -1262.7888     
     5      (1,1,5)              -1262.7901     
     6      (1,1,6)              -1262.7913     
     7      (1,1,7)              -1262.7926     
     8      (1,1,8)              -1262.7942     
     9      (1,1,9)              -1262.7956     
     10     (1,21,1)             -1262.7942     
     11     (1,21,2)             -1262.7926     
     12     (1,21,3)             -1262.7912     
     13     (1,21,4)             -1262.7900     
     14     (1,21,5)             -1262.7889     
     15     (1,21,6)             -1262.7882     
     16     (1,21,7)             -1262.7887     
     17     (1,21,8)             -1262.7913     
     18     (1,21,9)             -1262.7950     
 -----------------------------------------------




 HEAD WILL BE SAVED ON UNIT 1016 AT END OF TIME STEP    6, STRESS PERIOD   11


  VOLUME BUDGET FOR ENTIRE MODEL AT END OF TIME STEP    6, STRESS PERIOD  11
  ---------------------------------------------------------------------------------------------------

     CUMULATIVE VOLUME      L**3       RATES FOR THIS TIME STEP      L**3/T          PACKAGE NAME    
     ------------------                 ------------------------                     ----------------

           IN:                                      IN:
           ---                                      ---
              STO-SS =     2279241.1356                STO-SS =       19761.7747     STORAGE                          
              STO-SY =       96257.5220                STO-SY =         830.9660     STORAGE                          
                 WEL =           0.0000                   WEL =           0.0000     WEL-1                            
                RCHA =    16289154.8680                  RCHA =        2137.5000     RCH-1                            
                 CHD =           0.0000                   CHD =           0.0000     CHD-FROM-IBOUND                  

            TOTAL IN =    18664653.5256              TOTAL IN =       22730.2408

          OUT:                                     OUT:
          ----                                     ----
              STO-SS =    11507173.9247                STO-SS =           0.0000     STORAGE                          
              STO-SY =      480409.1271                STO-SY =           0.0000     STORAGE                          
                 WEL =           0.0000                   WEL =           0.0000     WEL-1                            
                RCHA =           0.0000                  RCHA =           0.0000     RCH-1                            
                 CHD =     6677086.6790                   CHD =       22730.2407     CHD-FROM-IBOUND                  

           TOTAL OUT =    18664669.7308             TOTAL OUT =       22730.2407

            IN - OUT =         -16.2052              IN - OUT =       3.5120E-05

 PERCENT DISCREPANCY =          -0.00     PERCENT DISCREPANCY =           0.00




         TIME SUMMARY AT END OF TIME STEP    6 IN STRESS PERIOD   11
                    SECONDS     MINUTES      HOURS       DAYS        YEARS
                    -----------------------------------------------------------
   TIME STEP LENGTH 4.03945E+05  6732.4      112.21      4.6753     1.28002E-02
 STRESS PERIOD TIME 1.61199E+06  26866.      447.77      18.657     5.10808E-02
         TOTAL TIME 2.52856E+07 4.21426E+05  7023.8      292.66     0.80125    


end timestep


start timestep kper="11" kstp="7" mode="normal"

 UBDSV1 SAVING     FLOW-JA-FACE ON UNIT   1015 AT TIME STEP      7, STRESS PERIOD     11
 UBDSV06 SAVING              WEL IN MODEL MUMODEL          PACKAGE MUMODEL         CONNECTED TO MODEL MUMODEL          PACKAGE WEL-1            ON UNIT   1015 AT TIME STEP      7, STRESS PERIOD     11
 UBDSV06 SAVING             RCHA IN MODEL MUMODEL          PACKAGE MUMODEL         CONNECTED TO MODEL MUMODEL          PACKAGE RCH-1            ON UNIT   1015 AT TIME STEP      7, STRESS PERIOD     11

 WEL PACKAGE (WEL-1) FLOW RATES   PERIOD     11   STEP        7
 -----------------------------------------------
   NUMBER   CELLID                    RATE      
 -----------------------------------------------
     1      (1,5,5)               0.0000000     
     2      (1,11,5)              0.0000000     
     3      (1,5,5)               0.0000000     
 -----------------------------------------------




 CHD PACKAGE (CHD-FROM-IBOUND) FLOW RATES   PERIOD     11   STEP        7
 -----------------------------------------------
   NUMBER   CELLID                    RATE      
 -----------------------------------------------
     1      (1,1,1)              -1261.1224     
     2      (1,1,2)              -1261.1203     
     3      (1,1,3)              -1261.1194     
     4      (1,1,4)              -1261.1201     
     5      (1,1,5)              -1261.1213     
     6      (1,1,6)              -1261.1226     
     7      (1,1,7)              -1261.1239     
     8      (1,1,8)              -1261.1254     
     9      (1,1,9)              -1261.1269     
     10     (1,21,1)             -1261.1254     
     11     (1,21,2)             -1261.1239     
     12     (1,21,3)             -1261.1224     
     13     (1,21,4)             -1261.1212     
     14     (1,21,5)             -1261.1201     
     15     (1,21,6)             -1261.1195     
     16     (1,21,7)             -1261.1201     
     17     (1,21,8)             -1261.1226     
     18     (1,21,9)             -1261.1262     
 -----------------------------------------------




 HEAD WILL BE SAVED ON UNIT 1016 AT END OF TIME STEP    7, STRESS PERIOD   11


  VOLUME BUDGET FOR ENTIRE MODEL AT END OF TIME STEP    7, STRESS PERIOD  11
  ---------------------------------------------------------------------------------------------------

     CUMULATIVE VOLUME      L**3       RATES FOR THIS TIME STEP      L**3/T          PACKAGE NAME    
     ------------------                 ------------------------                     ----------------

           IN:                                      IN:
           ---                                      ---
              STO-SS =     2389950.3886                STO-SS =       19733.0677     STORAGE                          
              STO-SY =      100912.0639                STO-SY =         829.6361     STORAGE                          
                 WEL =           0.0000                   WEL =           0.0000     WEL-1                            
                RCHA =    16301146.9735                  RCHA =        2137.5000     RCH-1                            
                 CHD =           0.0000                   CHD =           0.0000     CHD-FROM-IBOUND                  

            TOTAL IN =    18792009.4259              TOTAL IN =       22700.2037

          OUT:                                     OUT:
          ----                                     ----
              STO-SS =    11507173.9247                STO-SS =           0.0000     STORAGE                          
              STO-SY =      480409.1271                STO-SY =           0.0000     STORAGE                          
                 WEL =           0.0000                   WEL =           0.0000     WEL-1                            
                RCHA =           0.0000                  RCHA =           0.0000     RCH-1                            
                 CHD =     6804442.5790                   CHD =       22700.2037     CHD-FROM-IBOUND                  

           TOTAL OUT =    18792025.6308             TOTAL OUT =       22700.2037

            IN - OUT =         -16.2049              IN - OUT =       5.7607E-05

 PERCENT DISCREPANCY =          -0.00     PERCENT DISCREPANCY =           0.00




         TIME SUMMARY AT END OF TIME STEP    7 IN STRESS PERIOD   11
                    SECONDS     MINUTES      HOURS       DAYS        YEARS
                    -----------------------------------------------------------
   TIME STEP LENGTH 4.84734E+05  8078.9      134.65      5.6103     1.53603E-02
 STRESS PERIOD TIME 2.09672E+06  34945.      582.42      24.268     6.64410E-02
         TOTAL TIME 2.57703E+07 4.29505E+05  7158.4      298.27     0.81661    


end timestep


start timestep kper="11" kstp="8" mode="normal"

 UBDSV1 SAVING     FLOW-JA-FACE ON UNIT   1015 AT TIME STEP      8, STRESS PERIOD     11
 UBDSV06 SAVING              WEL IN MODEL MUMODEL          PACKAGE MUMODEL         CONNECTED TO MODEL MUMODEL          PACKAGE WEL-1            ON UNIT   1015 AT TIME STEP      8, STRESS PERIOD     11
 UBDSV06 SAVING             RCHA IN MODEL MUMODEL          PACKAGE MUMODEL         CONNECTED TO MODEL MUMODEL          PACKAGE RCH-1            ON UNIT   1015 AT TIME STEP      8, STRESS PERIOD     11

 WEL PACKAGE (WEL-1) FLOW RATES   PERIOD     11   STEP        8
 -----------------------------------------------
   NUMBER   CELLID                    RATE      
 -----------------------------------------------
     1      (1,5,5)               0.0000000     
     2      (1,11,5)              0.0000000     
     3      (1,5,5)               0.0000000     
 -----------------------------------------------




 CHD PACKAGE (CHD-FROM-IBOUND) FLOW RATES   PERIOD     11   STEP        8
 -----------------------------------------------
   NUMBER   CELLID                    RATE      
 -----------------------------------------------
     1      (1,1,1)              -1259.1482     
     2      (1,1,2)              -1259.1460     
     3      (1,1,3)              -1259.1452     
     4      (1,1,4)              -1259.1458     
     5      (1,1,5)              -1259.1471     
     6      (1,1,6)              -1259.1483     
     7      (1,1,7)              -1259.1496     
     8      (1,1,8)              -1259.1511     
     9      (1,1,9)              -1259.1525     
     10     (1,21,1)             -1259.1511     
     11     (1,21,2)             -1259.1496     
     12     (1,21,3)             -1259.1481     
     13     (1,21,4)             -1259.1470     
     14     (1,21,5)             -1259.1459     
     15     (1,21,6)             -1259.1453     
     16     (1,21,7)             -1259.1459     
     17     (1,21,8)             -1259.1484     
     18     (1,21,9)             -1259.1519     
 -----------------------------------------------




 HEAD WILL BE SAVED ON UNIT 1016 AT END OF TIME STEP    8, STRESS PERIOD   11


  VOLUME BUDGET FOR ENTIRE MODEL AT END OF TIME STEP    8, STRESS PERIOD  11
  ---------------------------------------------------------------------------------------------------

     CUMULATIVE VOLUME      L**3       RATES FOR THIS TIME STEP      L**3/T          PACKAGE NAME    
     ------------------                 ------------------------                     ----------------

           IN:                                      IN:
           ---                                      ---
              STO-SS =     2522572.8304                STO-SS =       19699.1033     STORAGE                          
              STO-SY =      106486.9278                STO-SY =         828.0636     STORAGE                          
                 WEL =           0.0000                   WEL =           0.0000     WEL-1                            
                RCHA =    16315537.5000                  RCHA =        2137.5000     RCH-1                            
                 CHD =           0.0000                   CHD =           0.0000     CHD-FROM-IBOUND                  

            TOTAL IN =    18944597.2582              TOTAL IN =       22664.6670

          OUT:                                     OUT:
          ----                                     ----
              STO-SS =    11507173.9247                STO-SS =           0.0000     STORAGE                          
              STO-SY =      480409.1271                STO-SY =           0.0000     STORAGE                          
                 WEL =           0.0000                   WEL =           0.0000     WEL-1                            
                RCHA =           0.0000                  RCHA =           0.0000     RCH-1                            
                 CHD =     6957030.4106                   CHD =       22664.6669     CHD-FROM-IBOUND                  

           TOTAL OUT =    18944613.4624             TOTAL OUT =       22664.6669

            IN - OUT =         -16.2042              IN - OUT =       9.3780E-05

 PERCENT DISCREPANCY =          -0.00     PERCENT DISCREPANCY =           0.00




         TIME SUMMARY AT END OF TIME STEP    8 IN STRESS PERIOD   11
                    SECONDS     MINUTES      HOURS       DAYS        YEARS
                    -----------------------------------------------------------
   TIME STEP LENGTH 5.81680E+05  9694.7      161.58      6.7324     1.84323E-02
 STRESS PERIOD TIME 2.67840E+06  44640.      744.00      31.000     8.48734E-02
         TOTAL TIME 2.63520E+07 4.39200E+05  7320.0      305.00     0.83504    


end timestep


start timestep kper="12" kstp="1" mode="normal"


 OUTPUT CONTROL FOR STRESS PERIOD 12 IS REPEATED USING SETTINGS FROM A PREVIOUS STRESS PERIOD.


 STRESS PERIOD 12 IS TRANSIENT


 REUSING WELS FROM LAST STRESS PERIOD

 REUSING RCHS FROM LAST STRESS PERIOD

 REUSING CHDS FROM LAST STRESS PERIOD
 UBDSV1 SAVING     FLOW-JA-FACE ON UNIT   1015 AT TIME STEP      1, STRESS PERIOD     12
 UBDSV06 SAVING              WEL IN MODEL MUMODEL          PACKAGE MUMODEL         CONNECTED TO MODEL MUMODEL          PACKAGE WEL-1            ON UNIT   1015 AT TIME STEP      1, STRESS PERIOD     12
 UBDSV06 SAVING             RCHA IN MODEL MUMODEL          PACKAGE MUMODEL         CONNECTED TO MODEL MUMODEL          PACKAGE RCH-1            ON UNIT   1015 AT TIME STEP      1, STRESS PERIOD     12

 WEL PACKAGE (WEL-1) FLOW RATES   PERIOD     12   STEP        1
 -----------------------------------------------
   NUMBER   CELLID                    RATE      
 -----------------------------------------------
     1      (1,5,5)               0.0000000     
     2      (1,11,5)              0.0000000     
     3      (1,5,5)               0.0000000     
 -----------------------------------------------




 CHD PACKAGE (CHD-FROM-IBOUND) FLOW RATES   PERIOD     12   STEP        1
 -----------------------------------------------
   NUMBER   CELLID                    RATE      
 -----------------------------------------------
     1      (1,1,1)              -1258.6315     
     2      (1,1,2)              -1258.6293     
     3      (1,1,3)              -1258.6285     
     4      (1,1,4)              -1258.6291     
     5      (1,1,5)              -1258.6304     
     6      (1,1,6)              -1258.6316     
     7      (1,1,7)              -1258.6329     
     8      (1,1,8)              -1258.6344     
     9      (1,1,9)              -1258.6358     
     10     (1,21,1)             -1258.6343     
     11     (1,21,2)             -1258.6328     
     12     (1,21,3)             -1258.6314     
     13     (1,21,4)             -1258.6303     
     14     (1,21,5)             -1258.6292     
     15     (1,21,6)             -1258.6286     
     16     (1,21,7)             -1258.6292     
     17     (1,21,8)             -1258.6317     
     18     (1,21,9)             -1258.6352     
 -----------------------------------------------




 HEAD WILL BE SAVED ON UNIT 1016 AT END OF TIME STEP    1, STRESS PERIOD   12


  VOLUME BUDGET FOR ENTIRE MODEL AT END OF TIME STEP    1, STRESS PERIOD  12
  ---------------------------------------------------------------------------------------------------

     CUMULATIVE VOLUME      L**3       RATES FOR THIS TIME STEP      L**3/T          PACKAGE NAME    
     ------------------                 ------------------------                     ----------------

           IN:                                      IN:
           ---                                      ---
              STO-SS =     2558374.9145                STO-SS =       19690.0540     STORAGE                          
              STO-SY =      107991.8512                STO-SY =         827.6620     STORAGE                          
                 WEL =           0.0000                   WEL =           0.0000     WEL-1                            
                RCHA =    16319424.0792                  RCHA =        2137.5000     RCH-1                            
                 CHD =           0.0000                   CHD =           0.0000     CHD-FROM-IBOUND                  

            TOTAL IN =    18985790.8449              TOTAL IN =       22655.2160

          OUT:                                     OUT:
          ----                                     ----
              STO-SS =    11507173.9247                STO-SS =           0.0000     STORAGE                          
              STO-SY =      480409.1271                STO-SY =           0.0000     STORAGE                          
                 WEL =           0.0000                   WEL =           0.0000     WEL-1                            
                RCHA =           0.0000                  RCHA =           0.0000     RCH-1                            
                 CHD =     6998224.2704                   CHD =       22655.3662     CHD-FROM-IBOUND                  

           TOTAL OUT =    18985807.3222             TOTAL OUT =       22655.3662

            IN - OUT =         -16.4773              IN - OUT =          -0.1502

 PERCENT DISCREPANCY =          -0.00     PERCENT DISCREPANCY =          -0.00




         TIME SUMMARY AT END OF TIME STEP    1 IN STRESS PERIOD   12
                    SECONDS     MINUTES      HOURS       DAYS        YEARS
                    -----------------------------------------------------------
   TIME STEP LENGTH 1.57100E+05  2618.3      43.639      1.8183     4.97819E-03
 STRESS PERIOD TIME 1.57100E+05  2618.3      43.639      1.8183     4.97819E-03
         TOTAL TIME 2.65091E+07 4.41818E+05  7363.6      306.82     0.84002    


end timestep


start timestep kper="12" kstp="2" mode="normal"

 UBDSV1 SAVING     FLOW-JA-FACE ON UNIT   1015 AT TIME STEP      2, STRESS PERIOD     12
 UBDSV06 SAVING              WEL IN MODEL MUMODEL          PACKAGE MUMODEL         CONNECTED TO MODEL MUMODEL          PACKAGE WEL-1            ON UNIT   1015 AT TIME STEP      2, STRESS PERIOD     12
 UBDSV06 SAVING             RCHA IN MODEL MUMODEL          PACKAGE MUMODEL         CONNECTED TO MODEL MUMODEL          PACKAGE RCH-1            ON UNIT   1015 AT TIME STEP      2, STRESS PERIOD     12

 WEL PACKAGE (WEL-1) FLOW RATES   PERIOD     12   STEP        2
 -----------------------------------------------
   NUMBER   CELLID                    RATE      
 -----------------------------------------------
     1      (1,5,5)               0.0000000     
     2      (1,11,5)              0.0000000     
     3      (1,5,5)               0.0000000     
 -----------------------------------------------




 CHD PACKAGE (CHD-FROM-IBOUND) FLOW RATES   PERIOD     12   STEP        2
 -----------------------------------------------
   NUMBER   CELLID                    RATE      
 -----------------------------------------------
     1      (1,1,1)              -1257.9998     
     2      (1,1,2)              -1257.9977     
     3      (1,1,3)              -1257.9969     
     4      (1,1,4)              -1257.9975     
     5      (1,1,5)              -1257.9987     
     6      (1,1,6)              -1258.0000     
     7      (1,1,7)              -1258.0012     
     8      (1,1,8)              -1258.0027     
     9      (1,1,9)              -1258.0042     
     10     (1,21,1)             -1258.0027     
     11     (1,21,2)             -1258.0012     
     12     (1,21,3)             -1257.9998     
     13     (1,21,4)             -1257.9986     
     14     (1,21,5)             -1257.9976     
     15     (1,21,6)             -1257.9970     
     16     (1,21,7)             -1257.9976     
     17     (1,21,8)             -1258.0001     
     18     (1,21,9)             -1258.0036     
 -----------------------------------------------




 HEAD WILL BE SAVED ON UNIT 1016 AT END OF TIME STEP    2, STRESS PERIOD   12


  VOLUME BUDGET FOR ENTIRE MODEL AT END OF TIME STEP    2, STRESS PERIOD  12
  ---------------------------------------------------------------------------------------------------

     CUMULATIVE VOLUME      L**3       RATES FOR THIS TIME STEP      L**3/T          PACKAGE NAME    
     ------------------                 ------------------------                     ----------------

           IN:                                      IN:
           ---                                      ---
              STO-SS =     2601313.6440                STO-SS =       19679.1594     STORAGE                          
              STO-SY =      109796.6586                STO-SY =         827.1575     STORAGE                          
                 WEL =           0.0000                   WEL =           0.0000     WEL-1                            
                RCHA =    16324087.9743                  RCHA =        2137.5000     RCH-1                            
                 CHD =           0.0000                   CHD =           0.0000     CHD-FROM-IBOUND                  

            TOTAL IN =    19035198.2768              TOTAL IN =       22643.8169

          OUT:                                     OUT:
          ----                                     ----
              STO-SS =    11507173.9247                STO-SS =           0.0000     STORAGE                          
              STO-SY =      480409.1271                STO-SY =           0.0000     STORAGE                          
                 WEL =           0.0000                   WEL =           0.0000     WEL-1                            
                RCHA =           0.0000                  RCHA =           0.0000     RCH-1                            
                 CHD =     7047632.0949                   CHD =       22643.9969     CHD-FROM-IBOUND                  

           TOTAL OUT =    19035215.1467             TOTAL OUT =       22643.9969

            IN - OUT =         -16.8699              IN - OUT =          -0.1799

 PERCENT DISCREPANCY =          -0.00     PERCENT DISCREPANCY =          -0.00




         TIME SUMMARY AT END OF TIME STEP    2 IN STRESS PERIOD   12
                    SECONDS     MINUTES      HOURS       DAYS        YEARS
                    -----------------------------------------------------------
   TIME STEP LENGTH 1.88520E+05  3142.0      52.367      2.1819     5.97382E-03
 STRESS PERIOD TIME 3.45619E+05  5760.3      96.005      4.0002     1.09520E-02
         TOTAL TIME 2.66976E+07 4.44960E+05  7416.0      309.00     0.84600    


end timestep


start timestep kper="12" kstp="3" mode="normal"

 UBDSV1 SAVING     FLOW-JA-FACE ON UNIT   1015 AT TIME STEP      3, STRESS PERIOD     12
 UBDSV06 SAVING              WEL IN MODEL MUMODEL          PACKAGE MUMODEL         CONNECTED TO MODEL MUMODEL          PACKAGE WEL-1            ON UNIT   1015 AT TIME STEP      3, STRESS PERIOD     12
 UBDSV06 SAVING             RCHA IN MODEL MUMODEL          PACKAGE MUMODEL         CONNECTED TO MODEL MUMODEL          PACKAGE RCH-1            ON UNIT   1015 AT TIME STEP      3, STRESS PERIOD     12

 WEL PACKAGE (WEL-1) FLOW RATES   PERIOD     12   STEP        3
 -----------------------------------------------
   NUMBER   CELLID                    RATE      
 -----------------------------------------------
     1      (1,5,5)               0.0000000     
     2      (1,11,5)              0.0000000     
     3      (1,5,5)               0.0000000     
 -----------------------------------------------




 CHD PACKAGE (CHD-FROM-IBOUND) FLOW RATES   PERIOD     12   STEP        3
 -----------------------------------------------
   NUMBER   CELLID                    RATE      
 -----------------------------------------------
     1      (1,1,1)              -1257.2460     
     2      (1,1,2)              -1257.2439     
     3      (1,1,3)              -1257.2431     
     4      (1,1,4)              -1257.2437     
     5      (1,1,5)              -1257.2449     
     6      (1,1,6)              -1257.2461     
     7      (1,1,7)              -1257.2474     
     8      (1,1,8)              -1257.2489     
     9      (1,1,9)              -1257.2503     
     10     (1,21,1)             -1257.2488     
     11     (1,21,2)             -1257.2474     
     12     (1,21,3)             -1257.2460     
     13     (1,21,4)             -1257.2448     
     14     (1,21,5)             -1257.2438     
     15     (1,21,6)             -1257.2432     
     16     (1,21,7)             -1257.2438     
     17     (1,21,8)             -1257.2463     
     18     (1,21,9)             -1257.2498     
 -----------------------------------------------




 HEAD WILL BE SAVED ON UNIT 1016 AT END OF TIME STEP    3, STRESS PERIOD   12


  VOLUME BUDGET FOR ENTIRE MODEL AT END OF TIME STEP    3, STRESS PERIOD  12
  ---------------------------------------------------------------------------------------------------

     CUMULATIVE VOLUME      L**3       RATES FOR THIS TIME STEP      L**3/T          PACKAGE NAME    
     ------------------                 ------------------------                     ----------------

           IN:                                      IN:
           ---                                      ---
              STO-SS =     2652806.0750                STO-SS =       19666.1571     STORAGE                          
              STO-SY =      111960.8513                STO-SY =         826.5556     STORAGE                          
                 WEL =           0.0000                   WEL =           0.0000     WEL-1                            
                RCHA =    16329684.6483                  RCHA =        2137.5000     RCH-1                            
                 CHD =           0.0000                   CHD =           0.0000     CHD-FROM-IBOUND                  

            TOTAL IN =    19094451.5747              TOTAL IN =       22630.2126

          OUT:                                     OUT:
          ----                                     ----
              STO-SS =    11507173.9247                STO-SS =           0.0000     STORAGE                          
              STO-SY =      480409.1271                STO-SY =           0.0000     STORAGE                          
                 WEL =           0.0000                   WEL =           0.0000     WEL-1                            
                RCHA =           0.0000                  RCHA =           0.0000     RCH-1                            
                 CHD =     7106885.9569                   CHD =       22630.4281     CHD-FROM-IBOUND                  

           TOTAL OUT =    19094469.0087             TOTAL OUT =       22630.4281

            IN - OUT =         -17.4340              IN - OUT =          -0.2155

 PERCENT DISCREPANCY =          -0.00     PERCENT DISCREPANCY =          -0.00




         TIME SUMMARY AT END OF TIME STEP    3 IN STRESS PERIOD   12
                    SECONDS     MINUTES      HOURS       DAYS        YEARS
                    -----------------------------------------------------------
   TIME STEP LENGTH 2.26223E+05  3770.4      62.840      2.6183     7.16859E-03
 STRESS PERIOD TIME 5.71843E+05  9530.7      158.85      6.6185     1.81206E-02
         TOTAL TIME 2.69238E+07 4.48731E+05  7478.8      311.62     0.85317    


end timestep


start timestep kper="12" kstp="4" mode="normal"

 UBDSV1 SAVING     FLOW-JA-FACE ON UNIT   1015 AT TIME STEP      4, STRESS PERIOD     12
 UBDSV06 SAVING              WEL IN MODEL MUMODEL          PACKAGE MUMODEL         CONNECTED TO MODEL MUMODEL          PACKAGE WEL-1            ON UNIT   1015 AT TIME STEP      4, STRESS PERIOD     12
 UBDSV06 SAVING             RCHA IN MODEL MUMODEL          PACKAGE MUMODEL         CONNECTED TO MODEL MUMODEL          PACKAGE RCH-1            ON UNIT   1015 AT TIME STEP      4, STRESS PERIOD     12

 WEL PACKAGE (WEL-1) FLOW RATES   PERIOD     12   STEP        4
 -----------------------------------------------
   NUMBER   CELLID                    RATE      
 -----------------------------------------------
     1      (1,5,5)               0.0000000     
     2      (1,11,5)              0.0000000     
     3      (1,5,5)               0.0000000     
 -----------------------------------------------




 CHD PACKAGE (CHD-FROM-IBOUND) FLOW RATES   PERIOD     12   STEP        4
 -----------------------------------------------
   NUMBER   CELLID                    RATE      
 -----------------------------------------------
     1      (1,1,1)              -1256.3473     
     2      (1,1,2)              -1256.3452     
     3      (1,1,3)              -1256.3444     
     4      (1,1,4)              -1256.3450     
     5      (1,1,5)              -1256.3462     
     6      (1,1,6)              -1256.3474     
     7      (1,1,7)              -1256.3487     
     8      (1,1,8)              -1256.3502     
     9      (1,1,9)              -1256.3516     
     10     (1,21,1)             -1256.3501     
     11     (1,21,2)             -1256.3486     
     12     (1,21,3)             -1256.3473     
     13     (1,21,4)             -1256.3461     
     14     (1,21,5)             -1256.3451     
     15     (1,21,6)             -1256.3445     
     16     (1,21,7)             -1256.3451     
     17     (1,21,8)             -1256.3476     
     18     (1,21,9)             -1256.3511     
 -----------------------------------------------




 HEAD WILL BE SAVED ON UNIT 1016 AT END OF TIME STEP    4, STRESS PERIOD   12


  VOLUME BUDGET FOR ENTIRE MODEL AT END OF TIME STEP    4, STRESS PERIOD  12
  ---------------------------------------------------------------------------------------------------

     CUMULATIVE VOLUME      L**3       RATES FOR THIS TIME STEP      L**3/T          PACKAGE NAME    
     ------------------                 ------------------------                     ----------------

           IN:                                      IN:
           ---                                      ---
              STO-SS =     2714548.2863                STO-SS =       19650.6555     STORAGE                          
              STO-SY =      114555.6286                STO-SY =         825.8382     STORAGE                          
                 WEL =           0.0000                   WEL =           0.0000     WEL-1                            
                RCHA =    16336400.6572                  RCHA =        2137.5000     RCH-1                            
                 CHD =           0.0000                   CHD =           0.0000     CHD-FROM-IBOUND                  

            TOTAL IN =    19165504.5721              TOTAL IN =       22613.9936

          OUT:                                     OUT:
          ----                                     ----
              STO-SS =    11507173.9247                STO-SS =           0.0000     STORAGE                          
              STO-SY =      480409.1271                STO-SY =           0.0000     STORAGE                          
                 WEL =           0.0000                   WEL =           0.0000     WEL-1                            
                RCHA =           0.0000                  RCHA =           0.0000     RCH-1                            
                 CHD =     7177939.7646                   CHD =       22614.2515     CHD-FROM-IBOUND                  

           TOTAL OUT =    19165522.8164             TOTAL OUT =       22614.2515

            IN - OUT =         -18.2444              IN - OUT =          -0.2579

 PERCENT DISCREPANCY =          -0.00     PERCENT DISCREPANCY =          -0.00




         TIME SUMMARY AT END OF TIME STEP    4 IN STRESS PERIOD   12
                    SECONDS     MINUTES      HOURS       DAYS        YEARS
                    -----------------------------------------------------------
   TIME STEP LENGTH 2.71468E+05  4524.5      75.408      3.1420     8.60231E-03
 STRESS PERIOD TIME 8.43311E+05  14055.      234.25      9.7605     2.67229E-02
         TOTAL TIME 2.71953E+07 4.53255E+05  7554.3      314.76     0.86177    


end timestep


start timestep kper="12" kstp="5" mode="normal"

 UBDSV1 SAVING     FLOW-JA-FACE ON UNIT   1015 AT TIME STEP      5, STRESS PERIOD     12
 UBDSV06 SAVING              WEL IN MODEL MUMODEL          PACKAGE MUMODEL         CONNECTED TO MODEL MUMODEL          PACKAGE WEL-1            ON UNIT   1015 AT TIME STEP      5, STRESS PERIOD     12
 UBDSV06 SAVING             RCHA IN MODEL MUMODEL          PACKAGE MUMODEL         CONNECTED TO MODEL MUMODEL          PACKAGE RCH-1            ON UNIT   1015 AT TIME STEP      5, STRESS PERIOD     12

 WEL PACKAGE (WEL-1) FLOW RATES   PERIOD     12   STEP        5
 -----------------------------------------------
   NUMBER   CELLID                    RATE      
 -----------------------------------------------
     1      (1,5,5)               0.0000000     
     2      (1,11,5)              0.0000000     
     3      (1,5,5)               0.0000000     
 -----------------------------------------------




 CHD PACKAGE (CHD-FROM-IBOUND) FLOW RATES   PERIOD     12   STEP        5
 -----------------------------------------------
   NUMBER   CELLID                    RATE      
 -----------------------------------------------
     1      (1,1,1)              -1255.2479     
     2      (1,1,2)              -1255.2459     
     3      (1,1,3)              -1255.2450     
     4      (1,1,4)              -1255.2456     
     5      (1,1,5)              -1255.2468     
     6      (1,1,6)              -1255.2480     
     7      (1,1,7)              -1255.2493     
     8      (1,1,8)              -1255.2508     
     9      (1,1,9)              -1255.2522     
     10     (1,21,1)             -1255.2507     
     11     (1,21,2)             -1255.2492     
     12     (1,21,3)             -1255.2479     
     13     (1,21,4)             -1255.2467     
     14     (1,21,5)             -1255.2457     
     15     (1,21,6)             -1255.2451     
     16     (1,21,7)             -1255.2458     
     17     (1,21,8)             -1255.2483     
     18     (1,21,9)             -1255.2517     
 -----------------------------------------------




 HEAD WILL BE SAVED ON UNIT 1016 AT END OF TIME STEP    5, STRESS PERIOD   12


  VOLUME BUDGET FOR ENTIRE MODEL AT END OF TIME STEP    5, STRESS PERIOD  12
  ---------------------------------------------------------------------------------------------------

     CUMULATIVE VOLUME      L**3       RATES FOR THIS TIME STEP      L**3/T          PACKAGE NAME    
     ------------------                 ------------------------                     ----------------

           IN:                                      IN:
           ---                                      ---
              STO-SS =     2788568.5474                STO-SS =       19631.9857     STORAGE                          
              STO-SY =      117666.1143                STO-SY =         824.9770     STORAGE                          
                 WEL =           0.0000                   WEL =           0.0000     WEL-1                            
                RCHA =    16344459.8679                  RCHA =        2137.5000     RCH-1                            
                 CHD =           0.0000                   CHD =           0.0000     CHD-FROM-IBOUND                  

            TOTAL IN =    19250694.5295              TOTAL IN =       22594.4626

          OUT:                                     OUT:
          ----                                     ----
              STO-SS =    11507173.9247                STO-SS =           0.0000     STORAGE                          
              STO-SY =      480409.1271                STO-SY =           0.0000     STORAGE                          
                 WEL =           0.0000                   WEL =           0.0000     WEL-1                            
                RCHA =           0.0000                  RCHA =           0.0000     RCH-1                            
                 CHD =     7263129.7220                   CHD =       22594.4626     CHD-FROM-IBOUND                  

           TOTAL OUT =    19250712.7738             TOTAL OUT =       22594.4626

            IN - OUT =         -18.2443              IN - OUT =       1.7113E-05

 PERCENT DISCREPANCY =          -0.00     PERCENT DISCREPANCY =           0.00




         TIME SUMMARY AT END OF TIME STEP    5 IN STRESS PERIOD   12
                    SECONDS     MINUTES      HOURS       DAYS        YEARS
                    -----------------------------------------------------------
   TIME STEP LENGTH 3.25762E+05  5429.4      90.489      3.7704     1.03228E-02
 STRESS PERIOD TIME 1.16907E+06  19485.      324.74      13.531     3.70457E-02
         TOTAL TIME 2.75211E+07 4.58685E+05  7644.7      318.53     0.87209    


end timestep


start timestep kper="12" kstp="6" mode="normal"

 UBDSV1 SAVING     FLOW-JA-FACE ON UNIT   1015 AT TIME STEP      6, STRESS PERIOD     12
 UBDSV06 SAVING              WEL IN MODEL MUMODEL          PACKAGE MUMODEL         CONNECTED TO MODEL MUMODEL          PACKAGE WEL-1            ON UNIT   1015 AT TIME STEP      6, STRESS PERIOD     12
 UBDSV06 SAVING             RCHA IN MODEL MUMODEL          PACKAGE MUMODEL         CONNECTED TO MODEL MUMODEL          PACKAGE RCH-1            ON UNIT   1015 AT TIME STEP      6, STRESS PERIOD     12

 WEL PACKAGE (WEL-1) FLOW RATES   PERIOD     12   STEP        6
 -----------------------------------------------
   NUMBER   CELLID                    RATE      
 -----------------------------------------------
     1      (1,5,5)               0.0000000     
     2      (1,11,5)              0.0000000     
     3      (1,5,5)               0.0000000     
 -----------------------------------------------




 CHD PACKAGE (CHD-FROM-IBOUND) FLOW RATES   PERIOD     12   STEP        6
 -----------------------------------------------
   NUMBER   CELLID                    RATE      
 -----------------------------------------------
     1      (1,1,1)              -1253.9700     
     2      (1,1,2)              -1253.9679     
     3      (1,1,3)              -1253.9671     
     4      (1,1,4)              -1253.9677     
     5      (1,1,5)              -1253.9689     
     6      (1,1,6)              -1253.9701     
     7      (1,1,7)              -1253.9713     
     8      (1,1,8)              -1253.9728     
     9      (1,1,9)              -1253.9742     
     10     (1,21,1)             -1253.9727     
     11     (1,21,2)             -1253.9713     
     12     (1,21,3)             -1253.9699     
     13     (1,21,4)             -1253.9688     
     14     (1,21,5)             -1253.9678     
     15     (1,21,6)             -1253.9672     
     16     (1,21,7)             -1253.9678     
     17     (1,21,8)             -1253.9703     
     18     (1,21,9)             -1253.9737     
 -----------------------------------------------




 HEAD WILL BE SAVED ON UNIT 1016 AT END OF TIME STEP    6, STRESS PERIOD   12


  VOLUME BUDGET FOR ENTIRE MODEL AT END OF TIME STEP    6, STRESS PERIOD  12
  ---------------------------------------------------------------------------------------------------

     CUMULATIVE VOLUME      L**3       RATES FOR THIS TIME STEP      L**3/T          PACKAGE NAME    
     ------------------                 ------------------------                     ----------------

           IN:                                      IN:
           ---                                      ---
              STO-SS =     2877293.3810                STO-SS =       19609.9986     STORAGE                          
              STO-SY =      121394.0993                STO-SY =         823.9608     STORAGE                          
                 WEL =           0.0000                   WEL =           0.0000     WEL-1                            
                RCHA =    16354130.9206                  RCHA =        2137.5000     RCH-1                            
                 CHD =           0.0000                   CHD =           0.0000     CHD-FROM-IBOUND                  

            TOTAL IN =    19352818.4009              TOTAL IN =       22571.4594

          OUT:                                     OUT:
          ----                                     ----
              STO-SS =    11507173.9247                STO-SS =           0.0000     STORAGE                          
              STO-SY =      480409.1271                STO-SY =           0.0000     STORAGE                          
                 WEL =           0.0000                   WEL =           0.0000     WEL-1                            
                RCHA =           0.0000                  RCHA =           0.0000     RCH-1                            
                 CHD =     7365253.5933                   CHD =       22571.4594     CHD-FROM-IBOUND                  

           TOTAL OUT =    19352836.6451             TOTAL OUT =       22571.4594

            IN - OUT =         -18.2442              IN - OUT =       2.5435E-05

 PERCENT DISCREPANCY =          -0.00     PERCENT DISCREPANCY =           0.00




         TIME SUMMARY AT END OF TIME STEP    6 IN STRESS PERIOD   12
                    SECONDS     MINUTES      HOURS       DAYS        YEARS
                    -----------------------------------------------------------
   TIME STEP LENGTH 3.90914E+05  6515.2      108.59      4.5245     1.23873E-02
 STRESS PERIOD TIME 1.55999E+06  26000.      433.33      18.055     4.94330E-02
         TOTAL TIME 2.79120E+07 4.65200E+05  7753.3      323.06     0.88448    


end timestep


start timestep kper="12" kstp="7" mode="normal"

 UBDSV1 SAVING     FLOW-JA-FACE ON UNIT   1015 AT TIME STEP      7, STRESS PERIOD     12
 UBDSV06 SAVING              WEL IN MODEL MUMODEL          PACKAGE MUMODEL         CONNECTED TO MODEL MUMODEL          PACKAGE WEL-1            ON UNIT   1015 AT TIME STEP      7, STRESS PERIOD     12
 UBDSV06 SAVING             RCHA IN MODEL MUMODEL          PACKAGE MUMODEL         CONNECTED TO MODEL MUMODEL          PACKAGE RCH-1            ON UNIT   1015 AT TIME STEP      7, STRESS PERIOD     12

 WEL PACKAGE (WEL-1) FLOW RATES   PERIOD     12   STEP        7
 -----------------------------------------------
   NUMBER   CELLID                    RATE      
 -----------------------------------------------
     1      (1,5,5)               0.0000000     
     2      (1,11,5)              0.0000000     
     3      (1,5,5)               0.0000000     
 -----------------------------------------------




 CHD PACKAGE (CHD-FROM-IBOUND) FLOW RATES   PERIOD     12   STEP        7
 -----------------------------------------------
   NUMBER   CELLID                    RATE      
 -----------------------------------------------
     1      (1,1,1)              -1252.4532     
     2      (1,1,2)              -1252.4512     
     3      (1,1,3)              -1252.4504     
     4      (1,1,4)              -1252.4509     
     5      (1,1,5)              -1252.4521     
     6      (1,1,6)              -1252.4533     
     7      (1,1,7)              -1252.4545     
     8      (1,1,8)              -1252.4560     
     9      (1,1,9)              -1252.4574     
     10     (1,21,1)             -1252.4559     
     11     (1,21,2)             -1252.4545     
     12     (1,21,3)             -1252.4531     
     13     (1,21,4)             -1252.4520     
     14     (1,21,5)             -1252.4510     
     15     (1,21,6)             -1252.4505     
     16     (1,21,7)             -1252.4512     
     17     (1,21,8)             -1252.4536     
     18     (1,21,9)             -1252.4569     
 -----------------------------------------------




 HEAD WILL BE SAVED ON UNIT 1016 AT END OF TIME STEP    7, STRESS PERIOD   12


  VOLUME BUDGET FOR ENTIRE MODEL AT END OF TIME STEP    7, STRESS PERIOD  12
  ---------------------------------------------------------------------------------------------------

     CUMULATIVE VOLUME      L**3       RATES FOR THIS TIME STEP      L**3/T          PACKAGE NAME    
     ------------------                 ------------------------                     ----------------

           IN:                                      IN:
           ---                                      ---
              STO-SS =     2983621.4964                STO-SS =       19583.9026     STORAGE                          
              STO-SY =      125861.1366                STO-SY =         822.7553     STORAGE                          
                 WEL =           0.0000                   WEL =           0.0000     WEL-1                            
                RCHA =    16365736.1840                  RCHA =        2137.5000     RCH-1                            
                 CHD =           0.0000                   CHD =           0.0000     CHD-FROM-IBOUND                  

            TOTAL IN =    19475218.8170              TOTAL IN =       22544.1579

          OUT:                                     OUT:
          ----                                     ----
              STO-SS =    11507173.9247                STO-SS =           0.0000     STORAGE                          
              STO-SY =      480409.1271                STO-SY =           0.0000     STORAGE                          
                 WEL =           0.0000                   WEL =           0.0000     WEL-1                            
                RCHA =           0.0000                  RCHA =           0.0000     RCH-1                            
                 CHD =     7487654.0091                   CHD =       22544.1579     CHD-FROM-IBOUND                  

           TOTAL OUT =    19475237.0609             TOTAL OUT =       22544.1579

            IN - OUT =         -18.2440              IN - OUT =       4.3001E-05

 PERCENT DISCREPANCY =          -0.00     PERCENT DISCREPANCY =           0.00




         TIME SUMMARY AT END OF TIME STEP    7 IN STRESS PERIOD   12
                    SECONDS     MINUTES      HOURS       DAYS        YEARS
                    -----------------------------------------------------------
   TIME STEP LENGTH 4.69097E+05  7818.3      130.30      5.4294     1.48648E-02
 STRESS PERIOD TIME 2.02908E+06  33818.      563.63      23.485     6.42978E-02
         TOTAL TIME 2.83811E+07 4.73018E+05  7883.6      328.48     0.89934    


end timestep


start timestep kper="12" kstp="8" mode="normal"

 UBDSV1 SAVING     FLOW-JA-FACE ON UNIT   1015 AT TIME STEP      8, STRESS PERIOD     12
 UBDSV06 SAVING              WEL IN MODEL MUMODEL          PACKAGE MUMODEL         CONNECTED TO MODEL MUMODEL          PACKAGE WEL-1            ON UNIT   1015 AT TIME STEP      8, STRESS PERIOD     12
 UBDSV06 SAVING             RCHA IN MODEL MUMODEL          PACKAGE MUMODEL         CONNECTED TO MODEL MUMODEL          PACKAGE RCH-1            ON UNIT   1015 AT TIME STEP      8, STRESS PERIOD     12

 WEL PACKAGE (WEL-1) FLOW RATES   PERIOD     12   STEP        8
 -----------------------------------------------
   NUMBER   CELLID                    RATE      
 -----------------------------------------------
     1      (1,5,5)               0.0000000     
     2      (1,11,5)              0.0000000     
     3      (1,5,5)               0.0000000     
 -----------------------------------------------




 CHD PACKAGE (CHD-FROM-IBOUND) FLOW RATES   PERIOD     12   STEP        8
 -----------------------------------------------
   NUMBER   CELLID                    RATE      
 -----------------------------------------------
     1      (1,1,1)              -1250.6567     
     2      (1,1,2)              -1250.6548     
     3      (1,1,3)              -1250.6539     
     4      (1,1,4)              -1250.6545     
     5      (1,1,5)              -1250.6556     
     6      (1,1,6)              -1250.6568     
     7      (1,1,7)              -1250.6580     
     8      (1,1,8)              -1250.6595     
     9      (1,1,9)              -1250.6608     
     10     (1,21,1)             -1250.6593     
     11     (1,21,2)             -1250.6580     
     12     (1,21,3)             -1250.6566     
     13     (1,21,4)             -1250.6556     
     14     (1,21,5)             -1250.6546     
     15     (1,21,6)             -1250.6541     
     16     (1,21,7)             -1250.6547     
     17     (1,21,8)             -1250.6572     
     18     (1,21,9)             -1250.6605     
 -----------------------------------------------




 HEAD WILL BE SAVED ON UNIT 1016 AT END OF TIME STEP    8, STRESS PERIOD   12


  VOLUME BUDGET FOR ENTIRE MODEL AT END OF TIME STEP    8, STRESS PERIOD  12
  ---------------------------------------------------------------------------------------------------

     CUMULATIVE VOLUME      L**3       RATES FOR THIS TIME STEP      L**3/T          PACKAGE NAME    
     ------------------                 ------------------------                     ----------------

           IN:                                      IN:
           ---                                      ---
              STO-SS =     3111013.8510                STO-SS =       19552.9929     STORAGE                          
              STO-SY =      131212.2850                STO-SY =         821.3285     STORAGE                          
                 WEL =           0.0000                   WEL =           0.0000     WEL-1                            
                RCHA =    16379662.5000                  RCHA =        2137.5000     RCH-1                            
                 CHD =           0.0000                   CHD =           0.0000     CHD-FROM-IBOUND                  

            TOTAL IN =    19621888.6360              TOTAL IN =       22511.8214

          OUT:                                     OUT:
          ----                                     ----
              STO-SS =    11507173.9247                STO-SS =           0.0000     STORAGE                          
              STO-SY =      480409.1271                STO-SY =           0.0000     STORAGE                          
                 WEL =           0.0000                   WEL =           0.0000     WEL-1                            
                RCHA =           0.0000                  RCHA =           0.0000     RCH-1                            
                 CHD =     7634323.8277                   CHD =       22511.8213     CHD-FROM-IBOUND                  

           TOTAL OUT =    19621906.8795             TOTAL OUT =       22511.8213

            IN - OUT =         -18.2435              IN - OUT =       6.8786E-05

 PERCENT DISCREPANCY =          -0.00     PERCENT DISCREPANCY =           0.00




         TIME SUMMARY AT END OF TIME STEP    8 IN STRESS PERIOD   12
                    SECONDS     MINUTES      HOURS       DAYS        YEARS
                    -----------------------------------------------------------
   TIME STEP LENGTH 5.62916E+05  9381.9      156.37      6.5152     1.78377E-02
 STRESS PERIOD TIME 2.59200E+06  43200.      720.00      30.000     8.21355E-02
         TOTAL TIME 2.89440E+07 4.82400E+05  8040.0      335.00     0.91718    


end timestep


start timestep kper="13" kstp="1" mode="normal"


 OUTPUT CONTROL FOR STRESS PERIOD 13 IS REPEATED USING SETTINGS FROM A PREVIOUS STRESS PERIOD.


 STRESS PERIOD 13 IS TRANSIENT


 REUSING WELS FROM LAST STRESS PERIOD

                 RECHARGE =  0.5000000E-03

 REUSING CHDS FROM LAST STRESS PERIOD
 UBDSV1 SAVING     FLOW-JA-FACE ON UNIT   1015 AT TIME STEP      1, STRESS PERIOD     13
 UBDSV06 SAVING              WEL IN MODEL MUMODEL          PACKAGE MUMODEL         CONNECTED TO MODEL MUMODEL          PACKAGE WEL-1            ON UNIT   1015 AT TIME STEP      1, STRESS PERIOD     13
 UBDSV06 SAVING             RCHA IN MODEL MUMODEL          PACKAGE MUMODEL         CONNECTED TO MODEL MUMODEL          PACKAGE RCH-1            ON UNIT   1015 AT TIME STEP      1, STRESS PERIOD     13

 WEL PACKAGE (WEL-1) FLOW RATES   PERIOD     13   STEP        1
 -----------------------------------------------
   NUMBER   CELLID                    RATE      
 -----------------------------------------------
     1      (1,5,5)               0.0000000     
     2      (1,11,5)              0.0000000     
     3      (1,5,5)               0.0000000     
 -----------------------------------------------




 CHD PACKAGE (CHD-FROM-IBOUND) FLOW RATES   PERIOD     13   STEP        1
 -----------------------------------------------
   NUMBER   CELLID                    RATE      
 -----------------------------------------------
     1      (1,1,1)              -1250.5450     
     2      (1,1,2)              -1250.5430     
     3      (1,1,3)              -1250.5422     
     4      (1,1,4)              -1250.5427     
     5      (1,1,5)              -1250.5439     
     6      (1,1,6)              -1250.5451     
     7      (1,1,7)              -1250.5463     
     8      (1,1,8)              -1250.5477     
     9      (1,1,9)              -1250.5491     
     10     (1,21,1)             -1250.5476     
     11     (1,21,2)             -1250.5462     
     12     (1,21,3)             -1250.5449     
     13     (1,21,4)             -1250.5438     
     14     (1,21,5)             -1250.5428     
     15     (1,21,6)             -1250.5423     
     16     (1,21,7)             -1250.5430     
     17     (1,21,8)             -1250.5455     
     18     (1,21,9)             -1250.5487     
 -----------------------------------------------




 HEAD WILL BE SAVED ON UNIT 1016 AT END OF TIME STEP    1, STRESS PERIOD   13


  VOLUME BUDGET FOR ENTIRE MODEL AT END OF TIME STEP    1, STRESS PERIOD  13
  ---------------------------------------------------------------------------------------------------

     CUMULATIVE VOLUME      L**3       RATES FOR THIS TIME STEP      L**3/T          PACKAGE NAME    
     ------------------                 ------------------------                     ----------------

           IN:                                      IN:
           ---                                      ---
              STO-SS =     3113052.5531                STO-SS =        1085.0555     STORAGE                          
              STO-SY =      131305.7653                STO-SY =          49.7529     STORAGE                          
                 WEL =           0.0000                   WEL =           0.0000     WEL-1                            
                RCHA =    16419823.8185                  RCHA =       21375.0000     RCH-1                            
                 CHD =           0.0000                   CHD =           0.0000     CHD-FROM-IBOUND                  

            TOTAL IN =    19664182.1369              TOTAL IN =       22509.8083

          OUT:                                     OUT:
          ----                                     ----
              STO-SS =    11507173.9258                STO-SS =       6.0987E-04     STORAGE                          
              STO-SY =      480409.1272                STO-SY =       2.3888E-05     STORAGE                          
                 WEL =           0.0000                   WEL =           0.0000     WEL-1                            
                RCHA =           0.0000                  RCHA =           0.0000     RCH-1                            
                 CHD =     7676617.3315                   CHD =       22509.8098     CHD-FROM-IBOUND                  

           TOTAL OUT =    19664200.3845             TOTAL OUT =       22509.8105

            IN - OUT =         -18.2475              IN - OUT =      -2.1349E-03

 PERCENT DISCREPANCY =          -0.00     PERCENT DISCREPANCY =          -0.00




         TIME SUMMARY AT END OF TIME STEP    1 IN STRESS PERIOD   13
                    SECONDS     MINUTES      HOURS       DAYS        YEARS
                    -----------------------------------------------------------
   TIME STEP LENGTH 1.62336E+05  2705.6      45.093      1.8789     5.14413E-03
 STRESS PERIOD TIME 1.62336E+05  2705.6      45.093      1.8789     5.14413E-03
         TOTAL TIME 2.91063E+07 4.85106E+05  8085.1      336.88     0.92232    


end timestep


start timestep kper="13" kstp="2" mode="normal"

 UBDSV1 SAVING     FLOW-JA-FACE ON UNIT   1015 AT TIME STEP      2, STRESS PERIOD     13
 UBDSV06 SAVING              WEL IN MODEL MUMODEL          PACKAGE MUMODEL         CONNECTED TO MODEL MUMODEL          PACKAGE WEL-1            ON UNIT   1015 AT TIME STEP      2, STRESS PERIOD     13
 UBDSV06 SAVING             RCHA IN MODEL MUMODEL          PACKAGE MUMODEL         CONNECTED TO MODEL MUMODEL          PACKAGE RCH-1            ON UNIT   1015 AT TIME STEP      2, STRESS PERIOD     13

 WEL PACKAGE (WEL-1) FLOW RATES   PERIOD     13   STEP        2
 -----------------------------------------------
   NUMBER   CELLID                    RATE      
 -----------------------------------------------
     1      (1,5,5)               0.0000000     
     2      (1,11,5)              0.0000000     
     3      (1,5,5)               0.0000000     
 -----------------------------------------------




 CHD PACKAGE (CHD-FROM-IBOUND) FLOW RATES   PERIOD     13   STEP        2
 -----------------------------------------------
   NUMBER   CELLID                    RATE      
 -----------------------------------------------
     1      (1,1,1)              -1250.4085     
     2      (1,1,2)              -1250.4066     
     3      (1,1,3)              -1250.4057     
     4      (1,1,4)              -1250.4063     
     5      (1,1,5)              -1250.4074     
     6      (1,1,6)              -1250.4086     
     7      (1,1,7)              -1250.4098     
     8      (1,1,8)              -1250.4113     
     9      (1,1,9)              -1250.4126     
     10     (1,21,1)             -1250.4111     
     11     (1,21,2)             -1250.4097     
     12     (1,21,3)             -1250.4084     
     13     (1,21,4)             -1250.4073     
     14     (1,21,5)             -1250.4064     
     15     (1,21,6)             -1250.4059     
     16     (1,21,7)             -1250.4066     
     17     (1,21,8)             -1250.4090     
     18     (1,21,9)             -1250.4122     
 -----------------------------------------------




 HEAD WILL BE SAVED ON UNIT 1016 AT END OF TIME STEP    2, STRESS PERIOD   13


  VOLUME BUDGET FOR ENTIRE MODEL AT END OF TIME STEP    2, STRESS PERIOD  13
  ---------------------------------------------------------------------------------------------------

     CUMULATIVE VOLUME      L**3       RATES FOR THIS TIME STEP      L**3/T          PACKAGE NAME    
     ------------------                 ------------------------                     ----------------

           IN:                                      IN:
           ---                                      ---
              STO-SS =     3115493.7139                STO-SS =        1082.7129     STORAGE                          
              STO-SY =      131417.6841                STO-SY =          49.6386     STORAGE                          
                 WEL =           0.0000                   WEL =           0.0000     WEL-1                            
                RCHA =    16468017.4008                  RCHA =       21375.0000     RCH-1                            
                 CHD =           0.0000                   CHD =           0.0000     CHD-FROM-IBOUND                  

            TOTAL IN =    19714928.7987              TOTAL IN =       22507.3515

          OUT:                                     OUT:
          ----                                     ----
              STO-SS =    11507173.9269                STO-SS =       4.6408E-04     STORAGE                          
              STO-SY =      480409.1272                STO-SY =       1.8177E-05     STORAGE                          
                 WEL =           0.0000                   WEL =           0.0000     WEL-1                            
                RCHA =           0.0000                  RCHA =           0.0000     RCH-1                            
                 CHD =     7727363.9979                   CHD =       22507.3536     CHD-FROM-IBOUND                  

           TOTAL OUT =    19714947.0520             TOTAL OUT =       22507.3541

            IN - OUT =         -18.2533              IN - OUT =      -2.5487E-03

 PERCENT DISCREPANCY =          -0.00     PERCENT DISCREPANCY =          -0.00




         TIME SUMMARY AT END OF TIME STEP    2 IN STRESS PERIOD   13
                    SECONDS     MINUTES      HOURS       DAYS        YEARS
                    -----------------------------------------------------------
   TIME STEP LENGTH 1.94804E+05  3246.7      54.112      2.2547     6.17295E-03
 STRESS PERIOD TIME 3.57140E+05  5952.3      99.206      4.1336     1.13171E-02
         TOTAL TIME 2.93011E+07 4.88352E+05  8139.2      339.13     0.92850    


end timestep


start timestep kper="13" kstp="3" mode="normal"

 UBDSV1 SAVING     FLOW-JA-FACE ON UNIT   1015 AT TIME STEP      3, STRESS PERIOD     13
 UBDSV06 SAVING              WEL IN MODEL MUMODEL          PACKAGE MUMODEL         CONNECTED TO MODEL MUMODEL          PACKAGE WEL-1            ON UNIT   1015 AT TIME STEP      3, STRESS PERIOD     13
 UBDSV06 SAVING             RCHA IN MODEL MUMODEL          PACKAGE MUMODEL         CONNECTED TO MODEL MUMODEL          PACKAGE RCH-1            ON UNIT   1015 AT TIME STEP      3, STRESS PERIOD     13

 WEL PACKAGE (WEL-1) FLOW RATES   PERIOD     13   STEP        3
 -----------------------------------------------
   NUMBER   CELLID                    RATE      
 -----------------------------------------------
     1      (1,5,5)               0.0000000     
     2      (1,11,5)              0.0000000     
     3      (1,5,5)               0.0000000     
 -----------------------------------------------




 CHD PACKAGE (CHD-FROM-IBOUND) FLOW RATES   PERIOD     13   STEP        3
 -----------------------------------------------
   NUMBER   CELLID                    RATE      
 -----------------------------------------------
     1      (1,1,1)              -1250.2458     
     2      (1,1,2)              -1250.2439     
     3      (1,1,3)              -1250.2431     
     4      (1,1,4)              -1250.2436     
     5      (1,1,5)              -1250.2447     
     6      (1,1,6)              -1250.2459     
     7      (1,1,7)              -1250.2471     
     8      (1,1,8)              -1250.2486     
     9      (1,1,9)              -1250.2499     
     10     (1,21,1)             -1250.2484     
     11     (1,21,2)             -1250.2470     
     12     (1,21,3)             -1250.2457     
     13     (1,21,4)             -1250.2447     
     14     (1,21,5)             -1250.2437     
     15     (1,21,6)             -1250.2432     
     16     (1,21,7)             -1250.2439     
     17     (1,21,8)             -1250.2463     
     18     (1,21,9)             -1250.2496     
 -----------------------------------------------




 HEAD WILL BE SAVED ON UNIT 1016 AT END OF TIME STEP    3, STRESS PERIOD   13


  VOLUME BUDGET FOR ENTIRE MODEL AT END OF TIME STEP    3, STRESS PERIOD  13
  ---------------------------------------------------------------------------------------------------

     CUMULATIVE VOLUME      L**3       RATES FOR THIS TIME STEP      L**3/T          PACKAGE NAME    
     ------------------                 ------------------------                     ----------------

           IN:                                      IN:
           ---                                      ---
              STO-SS =     3118415.5505                STO-SS =        1079.9200     STORAGE                          
              STO-SY =      131551.6181                STO-SY =          49.5024     STORAGE                          
                 WEL =           0.0000                   WEL =           0.0000     WEL-1                            
                RCHA =    16525849.6994                  RCHA =       21375.0000     RCH-1                            
                 CHD =           0.0000                   CHD =           0.0000     CHD-FROM-IBOUND                  

            TOTAL IN =    19775816.8680              TOTAL IN =       22504.4224

          OUT:                                     OUT:
          ----                                     ----
              STO-SS =    11507173.9277                STO-SS =       3.0652E-04     STORAGE                          
              STO-SY =      480409.1272                STO-SY =       1.2006E-05     STORAGE                          
                 WEL =           0.0000                   WEL =           0.0000     WEL-1                            
                RCHA =           0.0000                  RCHA =           0.0000     RCH-1                            
                 CHD =     7788252.0745                   CHD =       22504.4252     CHD-FROM-IBOUND                  

           TOTAL OUT =    19775835.1295             TOTAL OUT =       22504.4255

            IN - OUT =         -18.2615              IN - OUT =      -3.0275E-03

 PERCENT DISCREPANCY =          -0.00     PERCENT DISCREPANCY =          -0.00




         TIME SUMMARY AT END OF TIME STEP    3 IN STRESS PERIOD   13
                    SECONDS     MINUTES      HOURS       DAYS        YEARS
                    -----------------------------------------------------------
   TIME STEP LENGTH 2.33764E+05  3896.1      64.935      2.7056     7.40754E-03
 STRESS PERIOD TIME 5.90904E+05  9848.4      164.14      6.8392     1.87246E-02
         TOTAL TIME 2.95349E+07 4.92248E+05  8204.1      341.84     0.93590    


end timestep


start timestep kper="13" kstp="4" mode="normal"

 UBDSV1 SAVING     FLOW-JA-FACE ON UNIT   1015 AT TIME STEP      4, STRESS PERIOD     13
 UBDSV06 SAVING              WEL IN MODEL MUMODEL          PACKAGE MUMODEL         CONNECTED TO MODEL MUMODEL          PACKAGE WEL-1            ON UNIT   1015 AT TIME STEP      4, STRESS PERIOD     13
 UBDSV06 SAVING             RCHA IN MODEL MUMODEL          PACKAGE MUMODEL         CONNECTED TO MODEL MUMODEL          PACKAGE RCH-1            ON UNIT   1015 AT TIME STEP      4, STRESS PERIOD     13

 WEL PACKAGE (WEL-1) FLOW RATES   PERIOD     13   STEP        4
 -----------------------------------------------
   NUMBER   CELLID                    RATE      
 -----------------------------------------------
     1      (1,5,5)               0.0000000     
     2      (1,11,5)              0.0000000     
     3      (1,5,5)               0.0000000     
 -----------------------------------------------




 CHD PACKAGE (CHD-FROM-IBOUND) FLOW RATES   PERIOD     13   STEP        4
 -----------------------------------------------
   NUMBER   CELLID                    RATE      
 -----------------------------------------------
     1      (1,1,1)              -1250.0521     
     2      (1,1,2)              -1250.0502     
     3      (1,1,3)              -1250.0494     
     4      (1,1,4)              -1250.0499     
     5      (1,1,5)              -1250.0510     
     6      (1,1,6)              -1250.0522     
     7      (1,1,7)              -1250.0534     
     8      (1,1,8)              -1250.0548     
     9      (1,1,9)              -1250.0561     
     10     (1,21,1)             -1250.0546     
     11     (1,21,2)             -1250.0533     
     12     (1,21,3)             -1250.0520     
     13     (1,21,4)             -1250.0509     
     14     (1,21,5)             -1250.0500     
     15     (1,21,6)             -1250.0495     
     16     (1,21,7)             -1250.0502     
     17     (1,21,8)             -1250.0527     
     18     (1,21,9)             -1250.0558     
 -----------------------------------------------




 HEAD WILL BE SAVED ON UNIT 1016 AT END OF TIME STEP    4, STRESS PERIOD   13


  VOLUME BUDGET FOR ENTIRE MODEL AT END OF TIME STEP    4, STRESS PERIOD  13
  ---------------------------------------------------------------------------------------------------

     CUMULATIVE VOLUME      L**3       RATES FOR THIS TIME STEP      L**3/T          PACKAGE NAME    
     ------------------                 ------------------------                     ----------------

           IN:                                      IN:
           ---                                      ---
              STO-SS =     3121910.9573                STO-SS =        1076.5945     STORAGE                          
              STO-SY =      131711.8124                STO-SY =          49.3403     STORAGE                          
                 WEL =           0.0000                   WEL =           0.0000     WEL-1                            
                RCHA =    16595248.4578                  RCHA =       21375.0000     RCH-1                            
                 CHD =           0.0000                   CHD =           0.0000     CHD-FROM-IBOUND                  

            TOTAL IN =    19848871.2275              TOTAL IN =       22500.9348

          OUT:                                     OUT:
          ----                                     ----
              STO-SS =    11507173.9281                STO-SS =       1.1930E-04     STORAGE                          
              STO-SY =      480409.1272                STO-SY =       4.6729E-06     STORAGE                          
                 WEL =           0.0000                   WEL =           0.0000     WEL-1                            
                RCHA =           0.0000                  RCHA =           0.0000     RCH-1                            
                 CHD =     7861306.4453                   CHD =       22500.9382     CHD-FROM-IBOUND                  

           TOTAL OUT =    19848889.5007             TOTAL OUT =       22500.9383

            IN - OUT =         -18.2731              IN - OUT =      -3.5954E-03

 PERCENT DISCREPANCY =          -0.00     PERCENT DISCREPANCY =          -0.00




         TIME SUMMARY AT END OF TIME STEP    4 IN STRESS PERIOD   13
                    SECONDS     MINUTES      HOURS       DAYS        YEARS
                    -----------------------------------------------------------
   TIME STEP LENGTH 2.80517E+05  4675.3      77.921      3.2467     8.88905E-03
 STRESS PERIOD TIME 8.71421E+05  14524.      242.06      10.086     2.76137E-02
         TOTAL TIME 2.98154E+07 4.96924E+05  8282.1      345.09     0.94479    


end timestep


start timestep kper="13" kstp="5" mode="normal"

 UBDSV1 SAVING     FLOW-JA-FACE ON UNIT   1015 AT TIME STEP      5, STRESS PERIOD     13
 UBDSV06 SAVING              WEL IN MODEL MUMODEL          PACKAGE MUMODEL         CONNECTED TO MODEL MUMODEL          PACKAGE WEL-1            ON UNIT   1015 AT TIME STEP      5, STRESS PERIOD     13
 UBDSV06 SAVING             RCHA IN MODEL MUMODEL          PACKAGE MUMODEL         CONNECTED TO MODEL MUMODEL          PACKAGE RCH-1            ON UNIT   1015 AT TIME STEP      5, STRESS PERIOD     13

 WEL PACKAGE (WEL-1) FLOW RATES   PERIOD     13   STEP        5
 -----------------------------------------------
   NUMBER   CELLID                    RATE      
 -----------------------------------------------
     1      (1,5,5)               0.0000000     
     2      (1,11,5)              0.0000000     
     3      (1,5,5)               0.0000000     
 -----------------------------------------------




 CHD PACKAGE (CHD-FROM-IBOUND) FLOW RATES   PERIOD     13   STEP        5
 -----------------------------------------------
   NUMBER   CELLID                    RATE      
 -----------------------------------------------
     1      (1,1,1)              -1249.8218     
     2      (1,1,2)              -1249.8199     
     3      (1,1,3)              -1249.8191     
     4      (1,1,4)              -1249.8196     
     5      (1,1,5)              -1249.8207     
     6      (1,1,6)              -1249.8219     
     7      (1,1,7)              -1249.8231     
     8      (1,1,8)              -1249.8245     
     9      (1,1,9)              -1249.8258     
     10     (1,21,1)             -1249.8243     
     11     (1,21,2)             -1249.8230     
     12     (1,21,3)             -1249.8217     
     13     (1,21,4)             -1249.8206     
     14     (1,21,5)             -1249.8197     
     15     (1,21,6)             -1249.8192     
     16     (1,21,7)             -1249.8199     
     17     (1,21,8)             -1249.8224     
     18     (1,21,9)             -1249.8255     
 -----------------------------------------------




 HEAD WILL BE SAVED ON UNIT 1016 AT END OF TIME STEP    5, STRESS PERIOD   13


  VOLUME BUDGET FOR ENTIRE MODEL AT END OF TIME STEP    5, STRESS PERIOD  13
  ---------------------------------------------------------------------------------------------------

     CUMULATIVE VOLUME      L**3       RATES FOR THIS TIME STEP      L**3/T          PACKAGE NAME    
     ------------------                 ------------------------                     ----------------

           IN:                                      IN:
           ---                                      ---
              STO-SS =     3126090.0415                STO-SS =        1072.6408     STORAGE                          
              STO-SY =      131903.2945                STO-SY =          49.1475     STORAGE                          
                 WEL =           0.0000                   WEL =           0.0000     WEL-1                            
                RCHA =    16678526.9679                  RCHA =       21375.0000     RCH-1                            
                 CHD =           0.0000                   CHD =           0.0000     CHD-FROM-IBOUND                  

            TOTAL IN =    19936520.3040              TOTAL IN =       22496.7883

          OUT:                                     OUT:
          ----                                     ----
              STO-SS =    11507173.9281                STO-SS =           0.0000     STORAGE                          
              STO-SY =      480409.1272                STO-SY =           0.0000     STORAGE                          
                 WEL =           0.0000                   WEL =           0.0000     WEL-1                            
                RCHA =           0.0000                  RCHA =           0.0000     RCH-1                            
                 CHD =     7948955.5383                   CHD =       22496.7925     CHD-FROM-IBOUND                  

           TOTAL OUT =    19936538.5937             TOTAL OUT =       22496.7925

            IN - OUT =         -18.2897              IN - OUT =      -4.2547E-03

 PERCENT DISCREPANCY =          -0.00     PERCENT DISCREPANCY =          -0.00




         TIME SUMMARY AT END OF TIME STEP    5 IN STRESS PERIOD   13
                    SECONDS     MINUTES      HOURS       DAYS        YEARS
                    -----------------------------------------------------------
   TIME STEP LENGTH 3.36621E+05  5610.3      93.506      3.8961     1.06669E-02
 STRESS PERIOD TIME 1.20804E+06  20134.      335.57      13.982     3.82805E-02
         TOTAL TIME 3.01520E+07 5.02534E+05  8375.6      348.98     0.95546    


end timestep


start timestep kper="13" kstp="6" mode="normal"

 UBDSV1 SAVING     FLOW-JA-FACE ON UNIT   1015 AT TIME STEP      6, STRESS PERIOD     13
 UBDSV06 SAVING              WEL IN MODEL MUMODEL          PACKAGE MUMODEL         CONNECTED TO MODEL MUMODEL          PACKAGE WEL-1            ON UNIT   1015 AT TIME STEP      6, STRESS PERIOD     13
 UBDSV06 SAVING             RCHA IN MODEL MUMODEL          PACKAGE MUMODEL         CONNECTED TO MODEL MUMODEL          PACKAGE RCH-1            ON UNIT   1015 AT TIME STEP      6, STRESS PERIOD     13

 WEL PACKAGE (WEL-1) FLOW RATES   PERIOD     13   STEP        6
 -----------------------------------------------
   NUMBER   CELLID                    RATE      
 -----------------------------------------------
     1      (1,5,5)               0.0000000     
     2      (1,11,5)              0.0000000     
     3      (1,5,5)               0.0000000     
 -----------------------------------------------




 CHD PACKAGE (CHD-FROM-IBOUND) FLOW RATES   PERIOD     13   STEP        6
 -----------------------------------------------
   NUMBER   CELLID                    RATE      
 -----------------------------------------------
     1      (1,1,1)              -1249.5484     
     2      (1,1,2)              -1249.5466     
     3      (1,1,3)              -1249.5457     
     4      (1,1,4)              -1249.5463     
     5      (1,1,5)              -1249.5474     
     6      (1,1,6)              -1249.5485     
     7      (1,1,7)              -1249.5497     
     8      (1,1,8)              -1249.5511     
     9      (1,1,9)              -1249.5524     
     10     (1,21,1)             -1249.5509     
     11     (1,21,2)             -1249.5496     
     12     (1,21,3)             -1249.5483     
     13     (1,21,4)             -1249.5473     
     14     (1,21,5)             -1249.5464     
     15     (1,21,6)             -1249.5459     
     16     (1,21,7)             -1249.5466     
     17     (1,21,8)             -1249.5491     
     18     (1,21,9)             -1249.5522     
 -----------------------------------------------




 HEAD WILL BE SAVED ON UNIT 1016 AT END OF TIME STEP    6, STRESS PERIOD   13


  VOLUME BUDGET FOR ENTIRE MODEL AT END OF TIME STEP    6, STRESS PERIOD  13
  ---------------------------------------------------------------------------------------------------

     CUMULATIVE VOLUME      L**3       RATES FOR THIS TIME STEP      L**3/T          PACKAGE NAME    
     ------------------                 ------------------------                     ----------------

           IN:                                      IN:
           ---                                      ---
              STO-SS =     3131083.0055                STO-SS =        1067.9486     STORAGE                          
              STO-SY =      132132.0036                STO-SY =          48.9187     STORAGE                          
                 WEL =           0.0000                   WEL =           0.0000     WEL-1                            
                RCHA =    16778461.1800                  RCHA =       21375.0000     RCH-1                            
                 CHD =           0.0000                   CHD =           0.0000     CHD-FROM-IBOUND                  

            TOTAL IN =    20041676.1892              TOTAL IN =       22491.8674

          OUT:                                     OUT:
          ----                                     ----
              STO-SS =    11507173.9281                STO-SS =           0.0000     STORAGE                          
              STO-SY =      480409.1272                STO-SY =           0.0000     STORAGE                          
                 WEL =           0.0000                   WEL =           0.0000     WEL-1                            
                RCHA =           0.0000                  RCHA =           0.0000     RCH-1                            
                 CHD =     8054111.4470                   CHD =       22491.8724     CHD-FROM-IBOUND                  

           TOTAL OUT =    20041694.5024             TOTAL OUT =       22491.8724

            IN - OUT =         -18.3132              IN - OUT =      -5.0273E-03

 PERCENT DISCREPANCY =          -0.00     PERCENT DISCREPANCY =          -0.00




         TIME SUMMARY AT END OF TIME STEP    6 IN STRESS PERIOD   13
                    SECONDS     MINUTES      HOURS       DAYS        YEARS
                    -----------------------------------------------------------
   TIME STEP LENGTH 4.03945E+05  6732.4      112.21      4.6753     1.28002E-02
 STRESS PERIOD TIME 1.61199E+06  26866.      447.77      18.657     5.10808E-02
         TOTAL TIME 3.05560E+07 5.09266E+05  8487.8      353.66     0.96826    


end timestep


start timestep kper="13" kstp="7" mode="normal"

 UBDSV1 SAVING     FLOW-JA-FACE ON UNIT   1015 AT TIME STEP      7, STRESS PERIOD     13
 UBDSV06 SAVING              WEL IN MODEL MUMODEL          PACKAGE MUMODEL         CONNECTED TO MODEL MUMODEL          PACKAGE WEL-1            ON UNIT   1015 AT TIME STEP      7, STRESS PERIOD     13
 UBDSV06 SAVING             RCHA IN MODEL MUMODEL          PACKAGE MUMODEL         CONNECTED TO MODEL MUMODEL          PACKAGE RCH-1            ON UNIT   1015 AT TIME STEP      7, STRESS PERIOD     13

 WEL PACKAGE (WEL-1) FLOW RATES   PERIOD     13   STEP        7
 -----------------------------------------------
   NUMBER   CELLID                    RATE      
 -----------------------------------------------
     1      (1,5,5)               0.0000000     
     2      (1,11,5)              0.0000000     
     3      (1,5,5)               0.0000000     
 -----------------------------------------------




 CHD PACKAGE (CHD-FROM-IBOUND) FLOW RATES   PERIOD     13   STEP        7
 -----------------------------------------------
   NUMBER   CELLID                    RATE      
 -----------------------------------------------
     1      (1,1,1)              -1249.2247     
     2      (1,1,2)              -1249.2229     
     3      (1,1,3)              -1249.2221     
     4      (1,1,4)              -1249.2226     
     5      (1,1,5)              -1249.2237     
     6      (1,1,6)              -1249.2248     
     7      (1,1,7)              -1249.2260     
     8      (1,1,8)              -1249.2274     
     9      (1,1,9)              -1249.2287     
     10     (1,21,1)             -1249.2271     
     11     (1,21,2)             -1249.2259     
     12     (1,21,3)             -1249.2246     
     13     (1,21,4)             -1249.2236     
     14     (1,21,5)             -1249.2227     
     15     (1,21,6)             -1249.2223     
     16     (1,21,7)             -1249.2230     
     17     (1,21,8)             -1249.2254     
     18     (1,21,9)             -1249.2284     
 -----------------------------------------------




 HEAD WILL BE SAVED ON UNIT 1016 AT END OF TIME STEP    7, STRESS PERIOD   13


  VOLUME BUDGET FOR ENTIRE MODEL AT END OF TIME STEP    7, STRESS PERIOD  13
  ---------------------------------------------------------------------------------------------------

     CUMULATIVE VOLUME      L**3       RATES FOR THIS TIME STEP      L**3/T          PACKAGE NAME    
     ------------------                 ------------------------                     ----------------

           IN:                                      IN:
           ---                                      ---
              STO-SS =     3137043.3871                STO-SS =        1062.3919     STORAGE                          
              STO-SY =      132404.9347                STO-SY =          48.6479     STORAGE                          
                 WEL =           0.0000                   WEL =           0.0000     WEL-1                            
                RCHA =    16898382.2346                  RCHA =       21375.0000     RCH-1                            
                 CHD =           0.0000                   CHD =           0.0000     CHD-FROM-IBOUND                  

            TOTAL IN =    20167830.5564              TOTAL IN =       22486.0398

          OUT:                                     OUT:
          ----                                     ----
              STO-SS =    11507173.9281                STO-SS =           0.0000     STORAGE                          
              STO-SY =      480409.1272                STO-SY =           0.0000     STORAGE                          
                 WEL =           0.0000                   WEL =           0.0000     WEL-1                            
                RCHA =           0.0000                  RCHA =           0.0000     RCH-1                            
                 CHD =     8180265.8475                   CHD =       22486.0457     CHD-FROM-IBOUND                  

           TOTAL OUT =    20167848.9028             TOTAL OUT =       22486.0457

            IN - OUT =         -18.3464              IN - OUT =      -5.9222E-03

 PERCENT DISCREPANCY =          -0.00     PERCENT DISCREPANCY =          -0.00




         TIME SUMMARY AT END OF TIME STEP    7 IN STRESS PERIOD   13
                    SECONDS     MINUTES      HOURS       DAYS        YEARS
                    -----------------------------------------------------------
   TIME STEP LENGTH 4.84734E+05  8078.9      134.65      5.6103     1.53603E-02
 STRESS PERIOD TIME 2.09672E+06  34945.      582.42      24.268     6.64410E-02
         TOTAL TIME 3.10407E+07 5.17345E+05  8622.4      359.27     0.98362    


end timestep


start timestep kper="13" kstp="8" mode="normal"

 UBDSV1 SAVING     FLOW-JA-FACE ON UNIT   1015 AT TIME STEP      8, STRESS PERIOD     13
 UBDSV06 SAVING              WEL IN MODEL MUMODEL          PACKAGE MUMODEL         CONNECTED TO MODEL MUMODEL          PACKAGE WEL-1            ON UNIT   1015 AT TIME STEP      8, STRESS PERIOD     13
 UBDSV06 SAVING             RCHA IN MODEL MUMODEL          PACKAGE MUMODEL         CONNECTED TO MODEL MUMODEL          PACKAGE RCH-1            ON UNIT   1015 AT TIME STEP      8, STRESS PERIOD     13

 WEL PACKAGE (WEL-1) FLOW RATES   PERIOD     13   STEP        8
 -----------------------------------------------
   NUMBER   CELLID                    RATE      
 -----------------------------------------------
     1      (1,5,5)               0.0000000     
     2      (1,11,5)              0.0000000     
     3      (1,5,5)               0.0000000     
 -----------------------------------------------




 CHD PACKAGE (CHD-FROM-IBOUND) FLOW RATES   PERIOD     13   STEP        8
 -----------------------------------------------
   NUMBER   CELLID                    RATE      
 -----------------------------------------------
     1      (1,1,1)              -1248.8423     
     2      (1,1,2)              -1248.8405     
     3      (1,1,3)              -1248.8397     
     4      (1,1,4)              -1248.8402     
     5      (1,1,5)              -1248.8413     
     6      (1,1,6)              -1248.8424     
     7      (1,1,7)              -1248.8436     
     8      (1,1,8)              -1248.8450     
     9      (1,1,9)              -1248.8462     
     10     (1,21,1)             -1248.8447     
     11     (1,21,2)             -1248.8434     
     12     (1,21,3)             -1248.8422     
     13     (1,21,4)             -1248.8412     
     14     (1,21,5)             -1248.8403     
     15     (1,21,6)             -1248.8399     
     16     (1,21,7)             -1248.8406     
     17     (1,21,8)             -1248.8430     
     18     (1,21,9)             -1248.8460     
 -----------------------------------------------




 HEAD WILL BE SAVED ON UNIT 1016 AT END OF TIME STEP    8, STRESS PERIOD   13


  VOLUME BUDGET FOR ENTIRE MODEL AT END OF TIME STEP    8, STRESS PERIOD  13
  ---------------------------------------------------------------------------------------------------

     CUMULATIVE VOLUME      L**3       RATES FOR THIS TIME STEP      L**3/T          PACKAGE NAME    
     ------------------                 ------------------------                     ----------------

           IN:                                      IN:
           ---                                      ---
              STO-SS =     3144151.6520                STO-SS =        1055.8277     STORAGE                          
              STO-SY =      132730.2981                STO-SY =          48.3279     STORAGE                          
                 WEL =           0.0000                   WEL =           0.0000     WEL-1                            
                RCHA =    17042287.5000                  RCHA =       21375.0000     RCH-1                            
                 CHD =           0.0000                   CHD =           0.0000     CHD-FROM-IBOUND                  

            TOTAL IN =    20319169.4500              TOTAL IN =       22479.1556

          OUT:                                     OUT:
          ----                                     ----
              STO-SS =    11507173.9281                STO-SS =           0.0000     STORAGE                          
              STO-SY =      480409.1272                STO-SY =           0.0000     STORAGE                          
                 WEL =           0.0000                   WEL =           0.0000     WEL-1                            
                RCHA =           0.0000                  RCHA =           0.0000     RCH-1                            
                 CHD =     8331604.7879                   CHD =       22479.1625     CHD-FROM-IBOUND                  

           TOTAL OUT =    20319187.8433             TOTAL OUT =       22479.1625

            IN - OUT =         -18.3932              IN - OUT =      -6.9525E-03

 PERCENT DISCREPANCY =          -0.00     PERCENT DISCREPANCY =          -0.00




         TIME SUMMARY AT END OF TIME STEP    8 IN STRESS PERIOD   13
                    SECONDS     MINUTES      HOURS       DAYS        YEARS
                    -----------------------------------------------------------
   TIME STEP LENGTH 5.81680E+05  9694.7      161.58      6.7324     1.84323E-02
 STRESS PERIOD TIME 2.67840E+06  44640.      744.00      31.000     8.48734E-02
         TOTAL TIME 3.16224E+07 5.27040E+05  8784.0      366.00      1.0021    


end timestep


start timestep kper="14" kstp="1" mode="normal"


 OUTPUT CONTROL FOR STRESS PERIOD 14 IS REPEATED USING SETTINGS FROM A PREVIOUS STRESS PERIOD.


 STRESS PERIOD 14 IS TRANSIENT

 --------------------------------------------------------------------
  WEL NO.    LAYER    ROW     COL     STRESS RATE         IFACE      
 --------------------------------------------------------------------
     1         1       5       5    -20000.0000       0.00000000     
     2         1      11       5     0.00000000       0.00000000     
     3         1       5       5     0.00000000       0.00000000     
 --------------------------------------------------------------------



                 RECHARGE =  0.1000000E-02

 REUSING CHDS FROM LAST STRESS PERIOD
 UBDSV1 SAVING     FLOW-JA-FACE ON UNIT   1015 AT TIME STEP      1, STRESS PERIOD     14
 UBDSV06 SAVING              WEL IN MODEL MUMODEL          PACKAGE MUMODEL         CONNECTED TO MODEL MUMODEL          PACKAGE WEL-1            ON UNIT   1015 AT TIME STEP      1, STRESS PERIOD     14
 UBDSV06 SAVING             RCHA IN MODEL MUMODEL          PACKAGE MUMODEL         CONNECTED TO MODEL MUMODEL          PACKAGE RCH-1            ON UNIT   1015 AT TIME STEP      1, STRESS PERIOD     14

 WEL PACKAGE (WEL-1) FLOW RATES   PERIOD     14   STEP        1
 -----------------------------------------------
   NUMBER   CELLID                    RATE      
 -----------------------------------------------
     1      (1,5,5)              -20000.000     
     2      (1,11,5)              0.0000000     
     3      (1,5,5)               0.0000000     
 -----------------------------------------------




 CHD PACKAGE (CHD-FROM-IBOUND) FLOW RATES   PERIOD     14   STEP        1
 -----------------------------------------------
   NUMBER   CELLID                    RATE      
 -----------------------------------------------
     1      (1,1,1)              -1249.1711     
     2      (1,1,2)              -1249.1693     
     3      (1,1,3)              -1249.1685     
     4      (1,1,4)              -1249.1690     
     5      (1,1,5)              -1249.1700     
     6      (1,1,6)              -1249.1712     
     7      (1,1,7)              -1249.1724     
     8      (1,1,8)              -1249.1737     
     9      (1,1,9)              -1249.1750     
     10     (1,21,1)             -1249.1734     
     11     (1,21,2)             -1249.1722     
     12     (1,21,3)             -1249.1710     
     13     (1,21,4)             -1249.1700     
     14     (1,21,5)             -1249.1691     
     15     (1,21,6)             -1249.1687     
     16     (1,21,7)             -1249.1695     
     17     (1,21,8)             -1249.1718     
     18     (1,21,9)             -1249.1748     
 -----------------------------------------------




 HEAD WILL BE SAVED ON UNIT 1016 AT END OF TIME STEP    1, STRESS PERIOD   14


  VOLUME BUDGET FOR ENTIRE MODEL AT END OF TIME STEP    1, STRESS PERIOD  14
  ---------------------------------------------------------------------------------------------------

     CUMULATIVE VOLUME      L**3       RATES FOR THIS TIME STEP      L**3/T          PACKAGE NAME    
     ------------------                 ------------------------                     ----------------

           IN:                                      IN:
           ---                                      ---
              STO-SS =     3179475.9472                STO-SS =       18800.5982     STORAGE                          
              STO-SY =      134219.3134                STO-SY =         792.4965     STORAGE                          
                 WEL =           0.0000                   WEL =           0.0000     WEL-1                            
                RCHA =    17122610.1370                  RCHA =       42750.0000     RCH-1                            
                 CHD =           0.0000                   CHD =           0.0000     CHD-FROM-IBOUND                  

            TOTAL IN =    20436305.3977              TOTAL IN =       62343.0946

          OUT:                                     OUT:
          ----                                     ----
              STO-SS =    11542996.5644                STO-SS =       19065.8295     STORAGE                          
              STO-SY =      481897.5575                STO-SY =         792.1851     STORAGE                          
                 WEL =       37577.8419                   WEL =       20000.0000     WEL-1                            
                RCHA =           0.0000                  RCHA =           0.0000     RCH-1                            
                 CHD =     8373851.8283                   CHD =       22485.0807     CHD-FROM-IBOUND                  

           TOTAL OUT =    20436323.7921             TOTAL OUT =       62343.0953

            IN - OUT =         -18.3944              IN - OUT =      -6.3373E-04

 PERCENT DISCREPANCY =          -0.00     PERCENT DISCREPANCY =          -0.00




         TIME SUMMARY AT END OF TIME STEP    1 IN STRESS PERIOD   14
                    SECONDS     MINUTES      HOURS       DAYS        YEARS
                    -----------------------------------------------------------
   TIME STEP LENGTH 1.62336E+05  2705.6      45.093      1.8789     5.14413E-03
 STRESS PERIOD TIME 1.62336E+05  2705.6      45.093      1.8789     5.14413E-03
         TOTAL TIME 3.17847E+07 5.29746E+05  8829.1      367.88      1.0072    


end timestep


start timestep kper="14" kstp="2" mode="normal"

 UBDSV1 SAVING     FLOW-JA-FACE ON UNIT   1015 AT TIME STEP      2, STRESS PERIOD     14
 UBDSV06 SAVING              WEL IN MODEL MUMODEL          PACKAGE MUMODEL         CONNECTED TO MODEL MUMODEL          PACKAGE WEL-1            ON UNIT   1015 AT TIME STEP      2, STRESS PERIOD     14
 UBDSV06 SAVING             RCHA IN MODEL MUMODEL          PACKAGE MUMODEL         CONNECTED TO MODEL MUMODEL          PACKAGE RCH-1            ON UNIT   1015 AT TIME STEP      2, STRESS PERIOD     14

 WEL PACKAGE (WEL-1) FLOW RATES   PERIOD     14   STEP        2
 -----------------------------------------------
   NUMBER   CELLID                    RATE      
 -----------------------------------------------
     1      (1,5,5)              -20000.000     
     2      (1,11,5)              0.0000000     
     3      (1,5,5)               0.0000000     
 -----------------------------------------------




 CHD PACKAGE (CHD-FROM-IBOUND) FLOW RATES   PERIOD     14   STEP        2
 -----------------------------------------------
   NUMBER   CELLID                    RATE      
 -----------------------------------------------
     1      (1,1,1)              -1249.5765     
     2      (1,1,2)              -1249.5748     
     3      (1,1,3)              -1249.5739     
     4      (1,1,4)              -1249.5744     
     5      (1,1,5)              -1249.5754     
     6      (1,1,6)              -1249.5766     
     7      (1,1,7)              -1249.5777     
     8      (1,1,8)              -1249.5791     
     9      (1,1,9)              -1249.5803     
     10     (1,21,1)             -1249.5788     
     11     (1,21,2)             -1249.5776     
     12     (1,21,3)             -1249.5764     
     13     (1,21,4)             -1249.5754     
     14     (1,21,5)             -1249.5745     
     15     (1,21,6)             -1249.5741     
     16     (1,21,7)             -1249.5749     
     17     (1,21,8)             -1249.5772     
     18     (1,21,9)             -1249.5802     
 -----------------------------------------------




 HEAD WILL BE SAVED ON UNIT 1016 AT END OF TIME STEP    2, STRESS PERIOD   14


  VOLUME BUDGET FOR ENTIRE MODEL AT END OF TIME STEP    2, STRESS PERIOD  14
  ---------------------------------------------------------------------------------------------------

     CUMULATIVE VOLUME      L**3       RATES FOR THIS TIME STEP      L**3/T          PACKAGE NAME    
     ------------------                 ------------------------                     ----------------

           IN:                                      IN:
           ---                                      ---
              STO-SS =     3221389.9580                STO-SS =       18589.8607     STORAGE                          
              STO-SY =      135990.9500                STO-SY =         785.7629     STORAGE                          
                 WEL =           0.0000                   WEL =           0.0000     WEL-1                            
                RCHA =    17218997.3015                  RCHA =       42750.0000     RCH-1                            
                 CHD =           0.0000                   CHD =           0.0000     CHD-FROM-IBOUND                  

            TOTAL IN =    20576378.2095              TOTAL IN =       62125.6237

          OUT:                                     OUT:
          ----                                     ----
              STO-SS =    11585497.5342                STO-SS =       18850.1910     STORAGE                          
              STO-SY =      483663.0884                STO-SY =         783.0550     STORAGE                          
                 WEL =       82671.2522                   WEL =       20000.0000     WEL-1                            
                RCHA =           0.0000                  RCHA =           0.0000     RCH-1                            
                 CHD =     8424564.7293                   CHD =       22492.3778     CHD-FROM-IBOUND                  

           TOTAL OUT =    20576396.6040             TOTAL OUT =       62125.6237

            IN - OUT =         -18.3946              IN - OUT =      -5.8770E-05

 PERCENT DISCREPANCY =          -0.00     PERCENT DISCREPANCY =          -0.00




         TIME SUMMARY AT END OF TIME STEP    2 IN STRESS PERIOD   14
                    SECONDS     MINUTES      HOURS       DAYS        YEARS
                    -----------------------------------------------------------
   TIME STEP LENGTH 1.94804E+05  3246.7      54.112      2.2547     6.17295E-03
 STRESS PERIOD TIME 3.57140E+05  5952.3      99.206      4.1336     1.13171E-02
         TOTAL TIME 3.19795E+07 5.32992E+05  8883.2      370.13      1.0134    


end timestep


start timestep kper="14" kstp="3" mode="normal"

 UBDSV1 SAVING     FLOW-JA-FACE ON UNIT   1015 AT TIME STEP      3, STRESS PERIOD     14
 UBDSV06 SAVING              WEL IN MODEL MUMODEL          PACKAGE MUMODEL         CONNECTED TO MODEL MUMODEL          PACKAGE WEL-1            ON UNIT   1015 AT TIME STEP      3, STRESS PERIOD     14
 UBDSV06 SAVING             RCHA IN MODEL MUMODEL          PACKAGE MUMODEL         CONNECTED TO MODEL MUMODEL          PACKAGE RCH-1            ON UNIT   1015 AT TIME STEP      3, STRESS PERIOD     14

 WEL PACKAGE (WEL-1) FLOW RATES   PERIOD     14   STEP        3
 -----------------------------------------------
   NUMBER   CELLID                    RATE      
 -----------------------------------------------
     1      (1,5,5)              -20000.000     
     2      (1,11,5)              0.0000000     
     3      (1,5,5)               0.0000000     
 -----------------------------------------------




 CHD PACKAGE (CHD-FROM-IBOUND) FLOW RATES   PERIOD     14   STEP        3
 -----------------------------------------------
   NUMBER   CELLID                    RATE      
 -----------------------------------------------
     1      (1,1,1)              -1250.0607     
     2      (1,1,2)              -1250.0590     
     3      (1,1,3)              -1250.0581     
     4      (1,1,4)              -1250.0586     
     5      (1,1,5)              -1250.0595     
     6      (1,1,6)              -1250.0608     
     7      (1,1,7)              -1250.0619     
     8      (1,1,8)              -1250.0633     
     9      (1,1,9)              -1250.0645     
     10     (1,21,1)             -1250.0630     
     11     (1,21,2)             -1250.0618     
     12     (1,21,3)             -1250.0606     
     13     (1,21,4)             -1250.0596     
     14     (1,21,5)             -1250.0587     
     15     (1,21,6)             -1250.0583     
     16     (1,21,7)             -1250.0591     
     17     (1,21,8)             -1250.0615     
     18     (1,21,9)             -1250.0644     
 -----------------------------------------------




 HEAD WILL BE SAVED ON UNIT 1016 AT END OF TIME STEP    3, STRESS PERIOD   14


  VOLUME BUDGET FOR ENTIRE MODEL AT END OF TIME STEP    3, STRESS PERIOD  14
  ---------------------------------------------------------------------------------------------------

     CUMULATIVE VOLUME      L**3       RATES FOR THIS TIME STEP      L**3/T          PACKAGE NAME    
     ------------------                 ------------------------                     ----------------

           IN:                                      IN:
           ---                                      ---
              STO-SS =     3271641.7030                STO-SS =       18573.2035     STORAGE                          
              STO-SY =      138121.6527                STO-SY =         787.5145     STORAGE                          
                 WEL =           0.0000                   WEL =           0.0000     WEL-1                            
                RCHA =    17334661.8989                  RCHA =       42750.0000     RCH-1                            
                 CHD =           0.0000                   CHD =           0.0000     CHD-FROM-IBOUND                  

            TOTAL IN =    20744425.2546              TOTAL IN =       62110.7179

          OUT:                                     OUT:
          ----                                     ----
              STO-SS =    11636437.5130                STO-SS =       18827.5769     STORAGE                          
              STO-SY =      485779.0004                STO-SY =         782.0477     STORAGE                          
                 WEL =      136783.3445                   WEL =       20000.0000     WEL-1                            
                RCHA =           0.0000                  RCHA =           0.0000     RCH-1                            
                 CHD =     8485443.7915                   CHD =       22501.0934     CHD-FROM-IBOUND                  

           TOTAL OUT =    20744443.6494             TOTAL OUT =       62110.7180

            IN - OUT =         -18.3948              IN - OUT =      -9.5600E-05

 PERCENT DISCREPANCY =          -0.00     PERCENT DISCREPANCY =          -0.00




         TIME SUMMARY AT END OF TIME STEP    3 IN STRESS PERIOD   14
                    SECONDS     MINUTES      HOURS       DAYS        YEARS
                    -----------------------------------------------------------
   TIME STEP LENGTH 2.33764E+05  3896.1      64.935      2.7056     7.40754E-03
 STRESS PERIOD TIME 5.90904E+05  9848.4      164.14      6.8392     1.87246E-02
         TOTAL TIME 3.22133E+07 5.36888E+05  8948.1      372.84      1.0208    


end timestep


start timestep kper="14" kstp="4" mode="normal"

 UBDSV1 SAVING     FLOW-JA-FACE ON UNIT   1015 AT TIME STEP      4, STRESS PERIOD     14
 UBDSV06 SAVING              WEL IN MODEL MUMODEL          PACKAGE MUMODEL         CONNECTED TO MODEL MUMODEL          PACKAGE WEL-1            ON UNIT   1015 AT TIME STEP      4, STRESS PERIOD     14
 UBDSV06 SAVING             RCHA IN MODEL MUMODEL          PACKAGE MUMODEL         CONNECTED TO MODEL MUMODEL          PACKAGE RCH-1            ON UNIT   1015 AT TIME STEP      4, STRESS PERIOD     14

 WEL PACKAGE (WEL-1) FLOW RATES   PERIOD     14   STEP        4
 -----------------------------------------------
   NUMBER   CELLID                    RATE      
 -----------------------------------------------
     1      (1,5,5)              -20000.000     
     2      (1,11,5)              0.0000000     
     3      (1,5,5)               0.0000000     
 -----------------------------------------------




 CHD PACKAGE (CHD-FROM-IBOUND) FLOW RATES   PERIOD     14   STEP        4
 -----------------------------------------------
   NUMBER   CELLID                    RATE      
 -----------------------------------------------
     1      (1,1,1)              -1250.6385     
     2      (1,1,2)              -1250.6368     
     3      (1,1,3)              -1250.6360     
     4      (1,1,4)              -1250.6364     
     5      (1,1,5)              -1250.6371     
     6      (1,1,6)              -1250.6386     
     7      (1,1,7)              -1250.6398     
     8      (1,1,8)              -1250.6411     
     9      (1,1,9)              -1250.6423     
     10     (1,21,1)             -1250.6408     
     11     (1,21,2)             -1250.6396     
     12     (1,21,3)             -1250.6384     
     13     (1,21,4)             -1250.6374     
     14     (1,21,5)             -1250.6365     
     15     (1,21,6)             -1250.6362     
     16     (1,21,7)             -1250.6369     
     17     (1,21,8)             -1250.6393     
     18     (1,21,9)             -1250.6422     
 -----------------------------------------------




 HEAD WILL BE SAVED ON UNIT 1016 AT END OF TIME STEP    4, STRESS PERIOD   14


  VOLUME BUDGET FOR ENTIRE MODEL AT END OF TIME STEP    4, STRESS PERIOD  14
  ---------------------------------------------------------------------------------------------------

     CUMULATIVE VOLUME      L**3       RATES FOR THIS TIME STEP      L**3/T          PACKAGE NAME    
     ------------------                 ------------------------                     ----------------

           IN:                                      IN:
           ---                                      ---
              STO-SS =     3331855.3468                STO-SS =       18545.9606     STORAGE                          
              STO-SY =      140683.7928                STO-SY =         789.1459     STORAGE                          
                 WEL =           0.0000                   WEL =           0.0000     WEL-1                            
                RCHA =    17473459.4157                  RCHA =       42750.0000     RCH-1                            
                 CHD =           0.0000                   CHD =           0.0000     CHD-FROM-IBOUND                  

            TOTAL IN =    20945998.5553              TOTAL IN =       62085.1064

          OUT:                                     OUT:
          ----                                     ----
              STO-SS =    11697453.4995                STO-SS =       18793.0842     STORAGE                          
              STO-SY =      488313.1621                STO-SY =         780.5285     STORAGE                          
                 WEL =      201717.8553                   WEL =       20000.0000     WEL-1                            
                RCHA =           0.0000                  RCHA =           0.0000     RCH-1                            
                 CHD =     8558532.4337                   CHD =       22511.4939     CHD-FROM-IBOUND                  

           TOTAL OUT =    20946016.9506             TOTAL OUT =       62085.1066

            IN - OUT =         -18.3954              IN - OUT =      -1.6347E-04

 PERCENT DISCREPANCY =          -0.00     PERCENT DISCREPANCY =          -0.00




         TIME SUMMARY AT END OF TIME STEP    4 IN STRESS PERIOD   14
                    SECONDS     MINUTES      HOURS       DAYS        YEARS
                    -----------------------------------------------------------
   TIME STEP LENGTH 2.80517E+05  4675.3      77.921      3.2467     8.88905E-03
 STRESS PERIOD TIME 8.71421E+05  14524.      242.06      10.086     2.76137E-02
         TOTAL TIME 3.24938E+07 5.41564E+05  9026.1      376.09      1.0297    


end timestep


start timestep kper="14" kstp="5" mode="normal"

 UBDSV1 SAVING     FLOW-JA-FACE ON UNIT   1015 AT TIME STEP      5, STRESS PERIOD     14
 UBDSV06 SAVING              WEL IN MODEL MUMODEL          PACKAGE MUMODEL         CONNECTED TO MODEL MUMODEL          PACKAGE WEL-1            ON UNIT   1015 AT TIME STEP      5, STRESS PERIOD     14
 UBDSV06 SAVING             RCHA IN MODEL MUMODEL          PACKAGE MUMODEL         CONNECTED TO MODEL MUMODEL          PACKAGE RCH-1            ON UNIT   1015 AT TIME STEP      5, STRESS PERIOD     14

 WEL PACKAGE (WEL-1) FLOW RATES   PERIOD     14   STEP        5
 -----------------------------------------------
   NUMBER   CELLID                    RATE      
 -----------------------------------------------
     1      (1,5,5)              -20000.000     
     2      (1,11,5)              0.0000000     
     3      (1,5,5)               0.0000000     
 -----------------------------------------------




 CHD PACKAGE (CHD-FROM-IBOUND) FLOW RATES   PERIOD     14   STEP        5
 -----------------------------------------------
   NUMBER   CELLID                    RATE      
 -----------------------------------------------
     1      (1,1,1)              -1251.3273     
     2      (1,1,2)              -1251.3256     
     3      (1,1,3)              -1251.3248     
     4      (1,1,4)              -1251.3252     
     5      (1,1,5)              -1251.3252     
     6      (1,1,6)              -1251.3274     
     7      (1,1,7)              -1251.3286     
     8      (1,1,8)              -1251.3299     
     9      (1,1,9)              -1251.3311     
     10     (1,21,1)             -1251.3296     
     11     (1,21,2)             -1251.3284     
     12     (1,21,3)             -1251.3272     
     13     (1,21,4)             -1251.3262     
     14     (1,21,5)             -1251.3254     
     15     (1,21,6)             -1251.3250     
     16     (1,21,7)             -1251.3258     
     17     (1,21,8)             -1251.3281     
     18     (1,21,9)             -1251.3310     
 -----------------------------------------------




 HEAD WILL BE SAVED ON UNIT 1016 AT END OF TIME STEP    5, STRESS PERIOD   14


  VOLUME BUDGET FOR ENTIRE MODEL AT END OF TIME STEP    5, STRESS PERIOD  14
  ---------------------------------------------------------------------------------------------------

     CUMULATIVE VOLUME      L**3       RATES FOR THIS TIME STEP      L**3/T          PACKAGE NAME    
     ------------------                 ------------------------                     ----------------

           IN:                                      IN:
           ---                                      ---
              STO-SS =     3403946.5408                STO-SS =       18503.5644     STORAGE                          
              STO-SY =      143763.5294                STO-SY =         790.4725     STORAGE                          
                 WEL =           0.0000                   WEL =           0.0000     WEL-1                            
                RCHA =    17640016.4358                  RCHA =       42750.0000     RCH-1                            
                 CHD =           0.0000                   CHD =           0.0000     CHD-FROM-IBOUND                  

            TOTAL IN =    21187726.5060              TOTAL IN =       62044.0368

          OUT:                                     OUT:
          ----                                     ----
              STO-SS =    11770473.0922                STO-SS =       18741.8554     STORAGE                          
              STO-SY =      491345.4345                STO-SY =         778.2899     STORAGE                          
                 WEL =      279639.2682                   WEL =       20000.0000     WEL-1                            
                RCHA =           0.0000                  RCHA =           0.0000     RCH-1                            
                 CHD =     8646287.1075                   CHD =       22523.8918     CHD-FROM-IBOUND                  

           TOTAL OUT =    21187744.9024             TOTAL OUT =       62044.0371

            IN - OUT =         -18.3964              IN - OUT =      -2.6758E-04

 PERCENT DISCREPANCY =          -0.00     PERCENT DISCREPANCY =          -0.00




         TIME SUMMARY AT END OF TIME STEP    5 IN STRESS PERIOD   14
                    SECONDS     MINUTES      HOURS       DAYS        YEARS
                    -----------------------------------------------------------
   TIME STEP LENGTH 3.36621E+05  5610.3      93.506      3.8961     1.06669E-02
 STRESS PERIOD TIME 1.20804E+06  20134.      335.57      13.982     3.82805E-02
         TOTAL TIME 3.28304E+07 5.47174E+05  9119.6      379.98      1.0403    


end timestep


start timestep kper="14" kstp="6" mode="normal"

 UBDSV1 SAVING     FLOW-JA-FACE ON UNIT   1015 AT TIME STEP      6, STRESS PERIOD     14
 UBDSV06 SAVING              WEL IN MODEL MUMODEL          PACKAGE MUMODEL         CONNECTED TO MODEL MUMODEL          PACKAGE WEL-1            ON UNIT   1015 AT TIME STEP      6, STRESS PERIOD     14
 UBDSV06 SAVING             RCHA IN MODEL MUMODEL          PACKAGE MUMODEL         CONNECTED TO MODEL MUMODEL          PACKAGE RCH-1            ON UNIT   1015 AT TIME STEP      6, STRESS PERIOD     14

 WEL PACKAGE (WEL-1) FLOW RATES   PERIOD     14   STEP        6
 -----------------------------------------------
   NUMBER   CELLID                    RATE      
 -----------------------------------------------
     1      (1,5,5)              -20000.000     
     2      (1,11,5)              0.0000000     
     3      (1,5,5)               0.0000000     
 -----------------------------------------------




 CHD PACKAGE (CHD-FROM-IBOUND) FLOW RATES   PERIOD     14   STEP        6
 -----------------------------------------------
   NUMBER   CELLID                    RATE      
 -----------------------------------------------
     1      (1,1,1)              -1252.1474     
     2      (1,1,2)              -1252.1458     
     3      (1,1,3)              -1252.1449     
     4      (1,1,4)              -1252.1452     
     5      (1,1,5)              -1252.1436     
     6      (1,1,6)              -1252.1474     
     7      (1,1,7)              -1252.1487     
     8      (1,1,8)              -1252.1500     
     9      (1,1,9)              -1252.1512     
     10     (1,21,1)             -1252.1496     
     11     (1,21,2)             -1252.1485     
     12     (1,21,3)             -1252.1473     
     13     (1,21,4)             -1252.1463     
     14     (1,21,5)             -1252.1455     
     15     (1,21,6)             -1252.1452     
     16     (1,21,7)             -1252.1459     
     17     (1,21,8)             -1252.1483     
     18     (1,21,9)             -1252.1511     
 -----------------------------------------------




 HEAD WILL BE SAVED ON UNIT 1016 AT END OF TIME STEP    6, STRESS PERIOD   14


  VOLUME BUDGET FOR ENTIRE MODEL AT END OF TIME STEP    6, STRESS PERIOD  14
  ---------------------------------------------------------------------------------------------------

     CUMULATIVE VOLUME      L**3       RATES FOR THIS TIME STEP      L**3/T          PACKAGE NAME    
     ------------------                 ------------------------                     ----------------

           IN:                                      IN:
           ---                                      ---
              STO-SS =     3490158.3651                STO-SS =       18439.9087     STORAGE                          
              STO-SY =      147462.7550                STO-SY =         791.2300     STORAGE                          
                 WEL =           0.0000                   WEL =           0.0000     WEL-1                            
                RCHA =    17839884.8601                  RCHA =       42750.0000     RCH-1                            
                 CHD =           0.0000                   CHD =           0.0000     CHD-FROM-IBOUND                  

            TOTAL IN =    21477505.9802              TOTAL IN =       61981.1387

          OUT:                                     OUT:
          ----                                     ----
              STO-SS =    11857748.6458                STO-SS =       18667.4305     STORAGE                          
              STO-SY =      494969.0458                STO-SY =         775.0568     STORAGE                          
                 WEL =      373144.9638                   WEL =       20000.0000     WEL-1                            
                RCHA =           0.0000                  RCHA =           0.0000     RCH-1                            
                 CHD =     8751661.7233                   CHD =       22538.6518     CHD-FROM-IBOUND                  

           TOTAL OUT =    21477524.3787             TOTAL OUT =       61981.1391

            IN - OUT =         -18.3985              IN - OUT =      -4.4529E-04

 PERCENT DISCREPANCY =          -0.00     PERCENT DISCREPANCY =          -0.00




         TIME SUMMARY AT END OF TIME STEP    6 IN STRESS PERIOD   14
                    SECONDS     MINUTES      HOURS       DAYS        YEARS
                    -----------------------------------------------------------
   TIME STEP LENGTH 4.03945E+05  6732.4      112.21      4.6753     1.28002E-02
 STRESS PERIOD TIME 1.61199E+06  26866.      447.77      18.657     5.10808E-02
         TOTAL TIME 3.32344E+07 5.53906E+05  9231.8      384.66      1.0531    


end timestep


start timestep kper="14" kstp="7" mode="normal"

 UBDSV1 SAVING     FLOW-JA-FACE ON UNIT   1015 AT TIME STEP      7, STRESS PERIOD     14
 UBDSV06 SAVING              WEL IN MODEL MUMODEL          PACKAGE MUMODEL         CONNECTED TO MODEL MUMODEL          PACKAGE WEL-1            ON UNIT   1015 AT TIME STEP      7, STRESS PERIOD     14
 UBDSV06 SAVING             RCHA IN MODEL MUMODEL          PACKAGE MUMODEL         CONNECTED TO MODEL MUMODEL          PACKAGE RCH-1            ON UNIT   1015 AT TIME STEP      7, STRESS PERIOD     14

 WEL PACKAGE (WEL-1) FLOW RATES   PERIOD     14   STEP        7
 -----------------------------------------------
   NUMBER   CELLID                    RATE      
 -----------------------------------------------
     1      (1,5,5)              -20000.000     
     2      (1,11,5)              0.0000000     
     3      (1,5,5)               0.0000000     
 -----------------------------------------------




 CHD PACKAGE (CHD-FROM-IBOUND) FLOW RATES   PERIOD     14   STEP        7
 -----------------------------------------------
   NUMBER   CELLID                    RATE      
 -----------------------------------------------
     1      (1,1,1)              -1253.1225     
     2      (1,1,2)              -1253.1208     
     3      (1,1,3)              -1253.1200     
     4      (1,1,4)              -1253.1200     
     5      (1,1,5)              -1253.1144     
     6      (1,1,6)              -1253.1221     
     7      (1,1,7)              -1253.1236     
     8      (1,1,8)              -1253.1250     
     9      (1,1,9)              -1253.1262     
     10     (1,21,1)             -1253.1246     
     11     (1,21,2)             -1253.1235     
     12     (1,21,3)             -1253.1223     
     13     (1,21,4)             -1253.1213     
     14     (1,21,5)             -1253.1205     
     15     (1,21,6)             -1253.1202     
     16     (1,21,7)             -1253.1210     
     17     (1,21,8)             -1253.1233     
     18     (1,21,9)             -1253.1261     
 -----------------------------------------------




 HEAD WILL BE SAVED ON UNIT 1016 AT END OF TIME STEP    7, STRESS PERIOD   14


  VOLUME BUDGET FOR ENTIRE MODEL AT END OF TIME STEP    7, STRESS PERIOD  14
  ---------------------------------------------------------------------------------------------------

     CUMULATIVE VOLUME      L**3       RATES FOR THIS TIME STEP      L**3/T          PACKAGE NAME    
     ------------------                 ------------------------                     ----------------

           IN:                                      IN:
           ---                                      ---
              STO-SS =     3593091.3997                STO-SS =       18347.0169     STORAGE                          
              STO-SY =      151900.8453                STO-SY =         791.0553     STORAGE                          
                 WEL =           0.0000                   WEL =           0.0000     WEL-1                            
                RCHA =    18079726.9691                  RCHA =       42750.0000     RCH-1                            
                 CHD =           0.0000                   CHD =           0.0000     CHD-FROM-IBOUND                  

            TOTAL IN =    21824719.2141              TOTAL IN =       61888.0722

          OUT:                                     OUT:
          ----                                     ----
              STO-SS =    11961884.4662                STO-SS =       18561.4042     STORAGE                          
              STO-SY =      499291.6534                STO-SY =         770.4714     STORAGE                          
                 WEL =      485351.7984                   WEL =       20000.0000     WEL-1                            
                RCHA =           0.0000                  RCHA =           0.0000     RCH-1                            
                 CHD =     8878209.6986                   CHD =       22556.1974     CHD-FROM-IBOUND                  

           TOTAL OUT =    21824737.6167             TOTAL OUT =       61888.0729

            IN - OUT =         -18.4026              IN - OUT =      -7.3030E-04

 PERCENT DISCREPANCY =          -0.00     PERCENT DISCREPANCY =          -0.00




         TIME SUMMARY AT END OF TIME STEP    7 IN STRESS PERIOD   14
                    SECONDS     MINUTES      HOURS       DAYS        YEARS
                    -----------------------------------------------------------
   TIME STEP LENGTH 4.84734E+05  8078.9      134.65      5.6103     1.53603E-02
 STRESS PERIOD TIME 2.09672E+06  34945.      582.42      24.268     6.64410E-02
         TOTAL TIME 3.37191E+07 5.61985E+05  9366.4      390.27      1.0685    


end timestep


start timestep kper="14" kstp="8" mode="normal"

 UBDSV1 SAVING     FLOW-JA-FACE ON UNIT   1015 AT TIME STEP      8, STRESS PERIOD     14
 UBDSV06 SAVING              WEL IN MODEL MUMODEL          PACKAGE MUMODEL         CONNECTED TO MODEL MUMODEL          PACKAGE WEL-1            ON UNIT   1015 AT TIME STEP      8, STRESS PERIOD     14
 UBDSV06 SAVING             RCHA IN MODEL MUMODEL          PACKAGE MUMODEL         CONNECTED TO MODEL MUMODEL          PACKAGE RCH-1            ON UNIT   1015 AT TIME STEP      8, STRESS PERIOD     14

 WEL PACKAGE (WEL-1) FLOW RATES   PERIOD     14   STEP        8
 -----------------------------------------------
   NUMBER   CELLID                    RATE      
 -----------------------------------------------
     1      (1,5,5)              -20000.000     
     2      (1,11,5)              0.0000000     
     3      (1,5,5)               0.0000000     
 -----------------------------------------------




 CHD PACKAGE (CHD-FROM-IBOUND) FLOW RATES   PERIOD     14   STEP        8
 -----------------------------------------------
   NUMBER   CELLID                    RATE      
 -----------------------------------------------
     1      (1,1,1)              -1254.2797     
     2      (1,1,2)              -1254.2781     
     3      (1,1,3)              -1254.2772     
     4      (1,1,4)              -1254.2764     
     5      (1,1,5)              -1254.2621     
     6      (1,1,6)              -1254.2785     
     7      (1,1,7)              -1254.2808     
     8      (1,1,8)              -1254.2822     
     9      (1,1,9)              -1254.2833     
     10     (1,21,1)             -1254.2818     
     11     (1,21,2)             -1254.2807     
     12     (1,21,3)             -1254.2795     
     13     (1,21,4)             -1254.2786     
     14     (1,21,5)             -1254.2778     
     15     (1,21,6)             -1254.2775     
     16     (1,21,7)             -1254.2783     
     17     (1,21,8)             -1254.2806     
     18     (1,21,9)             -1254.2834     
 -----------------------------------------------




 HEAD WILL BE SAVED ON UNIT 1016 AT END OF TIME STEP    8, STRESS PERIOD   14


  VOLUME BUDGET FOR ENTIRE MODEL AT END OF TIME STEP    8, STRESS PERIOD  14
  ---------------------------------------------------------------------------------------------------

     CUMULATIVE VOLUME      L**3       RATES FOR THIS TIME STEP      L**3/T          PACKAGE NAME    
     ------------------                 ------------------------                     ----------------

           IN:                                      IN:
           ---                                      ---
              STO-SS =     3715720.5445                STO-SS =       18214.7468     STORAGE                          
              STO-SY =      157215.8693                STO-SY =         789.4682     STORAGE                          
                 WEL =           0.0000                   WEL =           0.0000     WEL-1                            
                RCHA =    18367537.5000                  RCHA =       42750.0000     RCH-1                            
                 CHD =           0.0000                   CHD =           0.0000     CHD-FROM-IBOUND                  

            TOTAL IN =    22240473.9138              TOTAL IN =       61754.2150

          OUT:                                     OUT:
          ----                                     ----
              STO-SS =    12085849.1392                STO-SS =       18413.1198     STORAGE                          
              STO-SY =      504435.7540                STO-SY =         764.0801     STORAGE                          
                 WEL =      620000.0000                   WEL =       20000.0000     WEL-1                            
                RCHA =           0.0000                  RCHA =           0.0000     RCH-1                            
                 CHD =     9030207.4312                   CHD =       22577.0164     CHD-FROM-IBOUND                  

           TOTAL OUT =    22240492.3244             TOTAL OUT =       61754.2162

            IN - OUT =         -18.4106              IN - OUT =      -1.1908E-03

 PERCENT DISCREPANCY =          -0.00     PERCENT DISCREPANCY =          -0.00




         TIME SUMMARY AT END OF TIME STEP    8 IN STRESS PERIOD   14
                    SECONDS     MINUTES      HOURS       DAYS        YEARS
                    -----------------------------------------------------------
   TIME STEP LENGTH 5.81680E+05  9694.7      161.58      6.7324     1.84323E-02
 STRESS PERIOD TIME 2.67840E+06  44640.      744.00      31.000     8.48734E-02
         TOTAL TIME 3.43008E+07 5.71680E+05  9528.0      397.00      1.0869    


end timestep


start timestep kper="15" kstp="1" mode="normal"


 OUTPUT CONTROL FOR STRESS PERIOD 15 IS REPEATED USING SETTINGS FROM A PREVIOUS STRESS PERIOD.


 STRESS PERIOD 15 IS TRANSIENT


 REUSING WELS FROM LAST STRESS PERIOD

                 RECHARGE =  0.3000000E-02

 REUSING CHDS FROM LAST STRESS PERIOD
 UBDSV1 SAVING     FLOW-JA-FACE ON UNIT   1015 AT TIME STEP      1, STRESS PERIOD     15
 UBDSV06 SAVING              WEL IN MODEL MUMODEL          PACKAGE MUMODEL         CONNECTED TO MODEL MUMODEL          PACKAGE WEL-1            ON UNIT   1015 AT TIME STEP      1, STRESS PERIOD     15
 UBDSV06 SAVING             RCHA IN MODEL MUMODEL          PACKAGE MUMODEL         CONNECTED TO MODEL MUMODEL          PACKAGE RCH-1            ON UNIT   1015 AT TIME STEP      1, STRESS PERIOD     15

 WEL PACKAGE (WEL-1) FLOW RATES   PERIOD     15   STEP        1
 -----------------------------------------------
   NUMBER   CELLID                    RATE      
 -----------------------------------------------
     1      (1,5,5)              -20000.000     
     2      (1,11,5)              0.0000000     
     3      (1,5,5)               0.0000000     
 -----------------------------------------------




 CHD PACKAGE (CHD-FROM-IBOUND) FLOW RATES   PERIOD     15   STEP        1
 -----------------------------------------------
   NUMBER   CELLID                    RATE      
 -----------------------------------------------
     1      (1,1,1)              -1256.1820     
     2      (1,1,2)              -1256.1804     
     3      (1,1,3)              -1256.1795     
     4      (1,1,4)              -1256.1785     
     5      (1,1,5)              -1256.1617     
     6      (1,1,6)              -1256.1806     
     7      (1,1,7)              -1256.1831     
     8      (1,1,8)              -1256.1845     
     9      (1,1,9)              -1256.1856     
     10     (1,21,1)             -1256.1841     
     11     (1,21,2)             -1256.1830     
     12     (1,21,3)             -1256.1818     
     13     (1,21,4)             -1256.1809     
     14     (1,21,5)             -1256.1801     
     15     (1,21,6)             -1256.1798     
     16     (1,21,7)             -1256.1806     
     17     (1,21,8)             -1256.1829     
     18     (1,21,9)             -1256.1857     
 -----------------------------------------------




 HEAD WILL BE SAVED ON UNIT 1016 AT END OF TIME STEP    1, STRESS PERIOD   15


  VOLUME BUDGET FOR ENTIRE MODEL AT END OF TIME STEP    1, STRESS PERIOD  15
  ---------------------------------------------------------------------------------------------------

     CUMULATIVE VOLUME      L**3       RATES FOR THIS TIME STEP      L**3/T          PACKAGE NAME    
     ------------------                 ------------------------                     ----------------

           IN:                                      IN:
           ---                                      ---
              STO-SS =     3742500.6016                STO-SS =       15780.2297     STORAGE                          
              STO-SY =      158384.9534                STO-SY =         688.8864     STORAGE                          
                 WEL =           0.0000                   WEL =           0.0000     WEL-1                            
                RCHA =    18585185.9359                  RCHA =      128250.0000     RCH-1                            
                 CHD =           0.0000                   CHD =           0.0000     CHD-FROM-IBOUND                  

            TOTAL IN =    22486071.4909              TOTAL IN =      144719.1161

          OUT:                                     OUT:
          ----                                     ----
              STO-SS =    12252195.0554                STO-SS =       98019.8349     STORAGE                          
              STO-SY =      511373.3961                STO-SY =        4088.0266     STORAGE                          
                 WEL =      653941.2765                   WEL =       20000.0000     WEL-1                            
                RCHA =           0.0000                  RCHA =           0.0000     RCH-1                            
                 CHD =     9068580.1741                   CHD =       22611.2549     CHD-FROM-IBOUND                  

           TOTAL OUT =    22486089.9022             TOTAL OUT =      144719.1165

            IN - OUT =         -18.4113              IN - OUT =      -3.9128E-04

 PERCENT DISCREPANCY =          -0.00     PERCENT DISCREPANCY =          -0.00




         TIME SUMMARY AT END OF TIME STEP    1 IN STRESS PERIOD   15
                    SECONDS     MINUTES      HOURS       DAYS        YEARS
                    -----------------------------------------------------------
   TIME STEP LENGTH 1.46626E+05  2443.8      40.730      1.6971     4.64631E-03
 STRESS PERIOD TIME 1.46626E+05  2443.8      40.730      1.6971     4.64631E-03
         TOTAL TIME 3.44474E+07 5.74124E+05  9568.7      398.70      1.0916    


end timestep


start timestep kper="15" kstp="2" mode="normal"

 UBDSV1 SAVING     FLOW-JA-FACE ON UNIT   1015 AT TIME STEP      2, STRESS PERIOD     15
 UBDSV06 SAVING              WEL IN MODEL MUMODEL          PACKAGE MUMODEL         CONNECTED TO MODEL MUMODEL          PACKAGE WEL-1            ON UNIT   1015 AT TIME STEP      2, STRESS PERIOD     15
 UBDSV06 SAVING             RCHA IN MODEL MUMODEL          PACKAGE MUMODEL         CONNECTED TO MODEL MUMODEL          PACKAGE RCH-1            ON UNIT   1015 AT TIME STEP      2, STRESS PERIOD     15

 WEL PACKAGE (WEL-1) FLOW RATES   PERIOD     15   STEP        2
 -----------------------------------------------
   NUMBER   CELLID                    RATE      
 -----------------------------------------------
     1      (1,5,5)              -20000.000     
     2      (1,11,5)              0.0000000     
     3      (1,5,5)               0.0000000     
 -----------------------------------------------




 CHD PACKAGE (CHD-FROM-IBOUND) FLOW RATES   PERIOD     15   STEP        2
 -----------------------------------------------
   NUMBER   CELLID                    RATE      
 -----------------------------------------------
     1      (1,1,1)              -1258.4562     
     2      (1,1,2)              -1258.4546     
     3      (1,1,3)              -1258.4537     
     4      (1,1,4)              -1258.4524     
     5      (1,1,5)              -1258.4321     
     6      (1,1,6)              -1258.4545     
     7      (1,1,7)              -1258.4573     
     8      (1,1,8)              -1258.4587     
     9      (1,1,9)              -1258.4598     
     10     (1,21,1)             -1258.4583     
     11     (1,21,2)             -1258.4572     
     12     (1,21,3)             -1258.4560     
     13     (1,21,4)             -1258.4551     
     14     (1,21,5)             -1258.4543     
     15     (1,21,6)             -1258.4540     
     16     (1,21,7)             -1258.4549     
     17     (1,21,8)             -1258.4572     
     18     (1,21,9)             -1258.4599     
 -----------------------------------------------




 HEAD WILL BE SAVED ON UNIT 1016 AT END OF TIME STEP    2, STRESS PERIOD   15


  VOLUME BUDGET FOR ENTIRE MODEL AT END OF TIME STEP    2, STRESS PERIOD  15
  ---------------------------------------------------------------------------------------------------

     CUMULATIVE VOLUME      L**3       RATES FOR THIS TIME STEP      L**3/T          PACKAGE NAME    
     ------------------                 ------------------------                     ----------------

           IN:                                      IN:
           ---                                      ---
              STO-SS =     3774548.8453                STO-SS =       15737.1039     STORAGE                          
              STO-SY =      159786.0852                STO-SY =         688.0176     STORAGE                          
                 WEL =           0.0000                   WEL =           0.0000     WEL-1                            
                RCHA =    18846364.0589                  RCHA =      128250.0000     RCH-1                            
                 CHD =           0.0000                   CHD =           0.0000     CHD-FROM-IBOUND                  

            TOTAL IN =    22780698.9894              TOTAL IN =      144675.1215

          OUT:                                     OUT:
          ----                                     ----
              STO-SS =    12451645.2000                STO-SS =       97938.8348     STORAGE                          
              STO-SY =      519690.5724                STO-SY =        4084.1011     STORAGE                          
                 WEL =      694670.8084                   WEL =       20000.0000     WEL-1                            
                RCHA =           0.0000                  RCHA =           0.0000     RCH-1                            
                 CHD =     9114710.8212                   CHD =       22652.1863     CHD-FROM-IBOUND                  

           TOTAL OUT =    22780717.4020             TOTAL OUT =      144675.1222

            IN - OUT =         -18.4126              IN - OUT =      -6.6621E-04

 PERCENT DISCREPANCY =          -0.00     PERCENT DISCREPANCY =          -0.00




         TIME SUMMARY AT END OF TIME STEP    2 IN STRESS PERIOD   15
                    SECONDS     MINUTES      HOURS       DAYS        YEARS
                    -----------------------------------------------------------
   TIME STEP LENGTH 1.75952E+05  2932.5      48.875      2.0365     5.57557E-03
 STRESS PERIOD TIME 3.22578E+05  5376.3      89.605      3.7335     1.02219E-02
         TOTAL TIME 3.46234E+07 5.77056E+05  9617.6      400.73      1.0971    


end timestep


start timestep kper="15" kstp="3" mode="normal"

 UBDSV1 SAVING     FLOW-JA-FACE ON UNIT   1015 AT TIME STEP      3, STRESS PERIOD     15
 UBDSV06 SAVING              WEL IN MODEL MUMODEL          PACKAGE MUMODEL         CONNECTED TO MODEL MUMODEL          PACKAGE WEL-1            ON UNIT   1015 AT TIME STEP      3, STRESS PERIOD     15
 UBDSV06 SAVING             RCHA IN MODEL MUMODEL          PACKAGE MUMODEL         CONNECTED TO MODEL MUMODEL          PACKAGE RCH-1            ON UNIT   1015 AT TIME STEP      3, STRESS PERIOD     15

 WEL PACKAGE (WEL-1) FLOW RATES   PERIOD     15   STEP        3
 -----------------------------------------------
   NUMBER   CELLID                    RATE      
 -----------------------------------------------
     1      (1,5,5)              -20000.000     
     2      (1,11,5)              0.0000000     
     3      (1,5,5)               0.0000000     
 -----------------------------------------------




 CHD PACKAGE (CHD-FROM-IBOUND) FLOW RATES   PERIOD     15   STEP        3
 -----------------------------------------------
   NUMBER   CELLID                    RATE      
 -----------------------------------------------
     1      (1,1,1)              -1261.1730     
     2      (1,1,2)              -1261.1715     
     3      (1,1,3)              -1261.1705     
     4      (1,1,4)              -1261.1688     
     5      (1,1,5)              -1261.1437     
     6      (1,1,6)              -1261.1708     
     7      (1,1,7)              -1261.1741     
     8      (1,1,8)              -1261.1755     
     9      (1,1,9)              -1261.1767     
     10     (1,21,1)             -1261.1751     
     11     (1,21,2)             -1261.1740     
     12     (1,21,3)             -1261.1729     
     13     (1,21,4)             -1261.1719     
     14     (1,21,5)             -1261.1712     
     15     (1,21,6)             -1261.1709     
     16     (1,21,7)             -1261.1717     
     17     (1,21,8)             -1261.1740     
     18     (1,21,9)             -1261.1767     
 -----------------------------------------------




 HEAD WILL BE SAVED ON UNIT 1016 AT END OF TIME STEP    3, STRESS PERIOD   15


  VOLUME BUDGET FOR ENTIRE MODEL AT END OF TIME STEP    3, STRESS PERIOD  15
  ---------------------------------------------------------------------------------------------------

     CUMULATIVE VOLUME      L**3       RATES FOR THIS TIME STEP      L**3/T          PACKAGE NAME    
     ------------------                 ------------------------                     ----------------

           IN:                                      IN:
           ---                                      ---
              STO-SS =     3812874.3877                STO-SS =       15682.9458     STORAGE                          
              STO-SY =      161464.5119                STO-SY =         686.8180     STORAGE                          
                 WEL =           0.0000                   WEL =           0.0000     WEL-1                            
                RCHA =    19159777.8066                  RCHA =      128250.0000     RCH-1                            
                 CHD =           0.0000                   CHD =           0.0000     CHD-FROM-IBOUND                  

            TOTAL IN =    23134116.7061              TOTAL IN =      144619.7638

          OUT:                                     OUT:
          ----                                     ----
              STO-SS =    12690742.3362                STO-SS =       97839.3831     STORAGE                          
              STO-SY =      529659.4461                STO-SY =        4079.2979     STORAGE                          
                 WEL =      743546.2466                   WEL =       20000.0000     WEL-1                            
                RCHA =           0.0000                  RCHA =           0.0000     RCH-1                            
                 CHD =     9170187.0900                   CHD =       22701.0829     CHD-FROM-IBOUND                  

           TOTAL OUT =    23134135.1189             TOTAL OUT =      144619.7639

            IN - OUT =         -18.4127              IN - OUT =      -5.4371E-05

 PERCENT DISCREPANCY =          -0.00     PERCENT DISCREPANCY =          -0.00




         TIME SUMMARY AT END OF TIME STEP    3 IN STRESS PERIOD   15
                    SECONDS     MINUTES      HOURS       DAYS        YEARS
                    -----------------------------------------------------------
   TIME STEP LENGTH 2.11142E+05  3519.0      58.651      2.4438     6.69068E-03
 STRESS PERIOD TIME 5.33720E+05  8895.3      148.26      6.1773     1.69126E-02
         TOTAL TIME 3.48345E+07 5.80575E+05  9676.3      403.18      1.1038    


end timestep


start timestep kper="15" kstp="4" mode="normal"

 UBDSV1 SAVING     FLOW-JA-FACE ON UNIT   1015 AT TIME STEP      4, STRESS PERIOD     15
 UBDSV06 SAVING              WEL IN MODEL MUMODEL          PACKAGE MUMODEL         CONNECTED TO MODEL MUMODEL          PACKAGE WEL-1            ON UNIT   1015 AT TIME STEP      4, STRESS PERIOD     15
 UBDSV06 SAVING             RCHA IN MODEL MUMODEL          PACKAGE MUMODEL         CONNECTED TO MODEL MUMODEL          PACKAGE RCH-1            ON UNIT   1015 AT TIME STEP      4, STRESS PERIOD     15

 WEL PACKAGE (WEL-1) FLOW RATES   PERIOD     15   STEP        4
 -----------------------------------------------
   NUMBER   CELLID                    RATE      
 -----------------------------------------------
     1      (1,5,5)              -20000.000     
     2      (1,11,5)              0.0000000     
     3      (1,5,5)               0.0000000     
 -----------------------------------------------




 CHD PACKAGE (CHD-FROM-IBOUND) FLOW RATES   PERIOD     15   STEP        4
 -----------------------------------------------
   NUMBER   CELLID                    RATE      
 -----------------------------------------------
     1      (1,1,1)              -1264.4158     
     2      (1,1,2)              -1264.4143     
     3      (1,1,3)              -1264.4133     
     4      (1,1,4)              -1264.4108     
     5      (1,1,5)              -1264.3788     
     6      (1,1,6)              -1264.4129     
     7      (1,1,7)              -1264.4169     
     8      (1,1,8)              -1264.4183     
     9      (1,1,9)              -1264.4194     
     10     (1,21,1)             -1264.4179     
     11     (1,21,2)             -1264.4168     
     12     (1,21,3)             -1264.4157     
     13     (1,21,4)             -1264.4147     
     14     (1,21,5)             -1264.4140     
     15     (1,21,6)             -1264.4137     
     16     (1,21,7)             -1264.4145     
     17     (1,21,8)             -1264.4168     
     18     (1,21,9)             -1264.4195     
 -----------------------------------------------




 HEAD WILL BE SAVED ON UNIT 1016 AT END OF TIME STEP    4, STRESS PERIOD   15


  VOLUME BUDGET FOR ENTIRE MODEL AT END OF TIME STEP    4, STRESS PERIOD  15
  ---------------------------------------------------------------------------------------------------

     CUMULATIVE VOLUME      L**3       RATES FOR THIS TIME STEP      L**3/T          PACKAGE NAME    
     ------------------                 ------------------------                     ----------------

           IN:                                      IN:
           ---                                      ---
              STO-SS =     3858664.9154                STO-SS =       15614.7032     STORAGE                          
              STO-SY =      163473.7771                STO-SY =         685.1653     STORAGE                          
                 WEL =           0.0000                   WEL =           0.0000     WEL-1                            
                RCHA =    19535874.3037                  RCHA =      128250.0000     RCH-1                            
                 CHD =           0.0000                   CHD =           0.0000     CHD-FROM-IBOUND                  

            TOTAL IN =    23558012.9962              TOTAL IN =      144549.8685

          OUT:                                     OUT:
          ----                                     ----
              STO-SS =    12977300.0510                STO-SS =       97717.0146     STORAGE                          
              STO-SY =      541604.8279                STO-SY =        4073.4100     STORAGE                          
                 WEL =      802196.7725                   WEL =       20000.0000     WEL-1                            
                RCHA =           0.0000                  RCHA =           0.0000     RCH-1                            
                 CHD =     9236929.7578                   CHD =       22759.4440     CHD-FROM-IBOUND                  

           TOTAL OUT =    23558031.4092             TOTAL OUT =      144549.8686

            IN - OUT =         -18.4130              IN - OUT =      -8.7446E-05

 PERCENT DISCREPANCY =          -0.00     PERCENT DISCREPANCY =          -0.00




         TIME SUMMARY AT END OF TIME STEP    4 IN STRESS PERIOD   15
                    SECONDS     MINUTES      HOURS       DAYS        YEARS
                    -----------------------------------------------------------
   TIME STEP LENGTH 2.53370E+05  4222.8      70.381      2.9325     8.02882E-03
 STRESS PERIOD TIME 7.87090E+05  13118.      218.64      9.1098     2.49414E-02
         TOTAL TIME 3.50879E+07 5.84798E+05  9746.6      406.11      1.1119    


end timestep


start timestep kper="15" kstp="5" mode="normal"

 UBDSV1 SAVING     FLOW-JA-FACE ON UNIT   1015 AT TIME STEP      5, STRESS PERIOD     15
 UBDSV06 SAVING              WEL IN MODEL MUMODEL          PACKAGE MUMODEL         CONNECTED TO MODEL MUMODEL          PACKAGE WEL-1            ON UNIT   1015 AT TIME STEP      5, STRESS PERIOD     15
 UBDSV06 SAVING             RCHA IN MODEL MUMODEL          PACKAGE MUMODEL         CONNECTED TO MODEL MUMODEL          PACKAGE RCH-1            ON UNIT   1015 AT TIME STEP      5, STRESS PERIOD     15

 WEL PACKAGE (WEL-1) FLOW RATES   PERIOD     15   STEP        5
 -----------------------------------------------
   NUMBER   CELLID                    RATE      
 -----------------------------------------------
     1      (1,5,5)              -20000.000     
     2      (1,11,5)              0.0000000     
     3      (1,5,5)               0.0000000     
 -----------------------------------------------




 CHD PACKAGE (CHD-FROM-IBOUND) FLOW RATES   PERIOD     15   STEP        5
 -----------------------------------------------
   NUMBER   CELLID                    RATE      
 -----------------------------------------------
     1      (1,1,1)              -1268.2824     
     2      (1,1,2)              -1268.2809     
     3      (1,1,3)              -1268.2799     
     4      (1,1,4)              -1268.2763     
     5      (1,1,5)              -1268.2342     
     6      (1,1,6)              -1268.2783     
     7      (1,1,7)              -1268.2834     
     8      (1,1,8)              -1268.2849     
     9      (1,1,9)              -1268.2860     
     10     (1,21,1)             -1268.2844     
     11     (1,21,2)             -1268.2834     
     12     (1,21,3)             -1268.2823     
     13     (1,21,4)             -1268.2813     
     14     (1,21,5)             -1268.2806     
     15     (1,21,6)             -1268.2803     
     16     (1,21,7)             -1268.2812     
     17     (1,21,8)             -1268.2834     
     18     (1,21,9)             -1268.2861     
 -----------------------------------------------




 HEAD WILL BE SAVED ON UNIT 1016 AT END OF TIME STEP    5, STRESS PERIOD   15


  VOLUME BUDGET FOR ENTIRE MODEL AT END OF TIME STEP    5, STRESS PERIOD  15
  ---------------------------------------------------------------------------------------------------

     CUMULATIVE VOLUME      L**3       RATES FOR THIS TIME STEP      L**3/T          PACKAGE NAME    
     ------------------                 ------------------------                     ----------------

           IN:                                      IN:
           ---                                      ---
              STO-SS =     3913310.1136                STO-SS =       15528.4763     STORAGE                          
              STO-SY =      165876.9093                STO-SY =         682.8959     STORAGE                          
                 WEL =           0.0000                   WEL =           0.0000     WEL-1                            
                RCHA =    19987190.1004                  RCHA =      128250.0000     RCH-1                            
                 CHD =           0.0000                   CHD =           0.0000     CHD-FROM-IBOUND                  

            TOTAL IN =    24066377.1232              TOTAL IN =      144461.3722

          OUT:                                     OUT:
          ----                                     ----
              STO-SS =    13320638.4560                STO-SS =       97566.1627     STORAGE                          
              STO-SY =      555913.8450                STO-SY =        4066.1804     STORAGE                          
                 WEL =      872577.4036                   WEL =       20000.0000     WEL-1                            
                RCHA =           0.0000                  RCHA =           0.0000     RCH-1                            
                 CHD =     9317265.8322                   CHD =       22829.0293     CHD-FROM-IBOUND                  

           TOTAL OUT =    24066395.5368             TOTAL OUT =      144461.3724

            IN - OUT =         -18.4135              IN - OUT =      -1.5075E-04

 PERCENT DISCREPANCY =          -0.00     PERCENT DISCREPANCY =          -0.00




         TIME SUMMARY AT END OF TIME STEP    5 IN STRESS PERIOD   15
                    SECONDS     MINUTES      HOURS       DAYS        YEARS
                    -----------------------------------------------------------
   TIME STEP LENGTH 3.04044E+05  5067.4      84.457      3.5190     9.63458E-03
 STRESS PERIOD TIME 1.09113E+06  18186.      303.09      12.629     3.45760E-02
         TOTAL TIME 3.53919E+07 5.89866E+05  9831.1      409.63      1.1215    


end timestep


start timestep kper="15" kstp="6" mode="normal"

 UBDSV1 SAVING     FLOW-JA-FACE ON UNIT   1015 AT TIME STEP      6, STRESS PERIOD     15
 UBDSV06 SAVING              WEL IN MODEL MUMODEL          PACKAGE MUMODEL         CONNECTED TO MODEL MUMODEL          PACKAGE WEL-1            ON UNIT   1015 AT TIME STEP      6, STRESS PERIOD     15
 UBDSV06 SAVING             RCHA IN MODEL MUMODEL          PACKAGE MUMODEL         CONNECTED TO MODEL MUMODEL          PACKAGE RCH-1            ON UNIT   1015 AT TIME STEP      6, STRESS PERIOD     15

 WEL PACKAGE (WEL-1) FLOW RATES   PERIOD     15   STEP        6
 -----------------------------------------------
   NUMBER   CELLID                    RATE      
 -----------------------------------------------
     1      (1,5,5)              -20000.000     
     2      (1,11,5)              0.0000000     
     3      (1,5,5)               0.0000000     
 -----------------------------------------------




 CHD PACKAGE (CHD-FROM-IBOUND) FLOW RATES   PERIOD     15   STEP        6
 -----------------------------------------------
   NUMBER   CELLID                    RATE      
 -----------------------------------------------
     1      (1,1,1)              -1272.8873     
     2      (1,1,2)              -1272.8858     
     3      (1,1,3)              -1272.8846     
     4      (1,1,4)              -1272.8793     
     5      (1,1,5)              -1272.8222     
     6      (1,1,6)              -1272.8813     
     7      (1,1,7)              -1272.8881     
     8      (1,1,8)              -1272.8897     
     9      (1,1,9)              -1272.8908     
     10     (1,21,1)             -1272.8893     
     11     (1,21,2)             -1272.8882     
     12     (1,21,3)             -1272.8871     
     13     (1,21,4)             -1272.8862     
     14     (1,21,5)             -1272.8855     
     15     (1,21,6)             -1272.8852     
     16     (1,21,7)             -1272.8861     
     17     (1,21,8)             -1272.8883     
     18     (1,21,9)             -1272.8910     
 -----------------------------------------------




 HEAD WILL BE SAVED ON UNIT 1016 AT END OF TIME STEP    6, STRESS PERIOD   15


  VOLUME BUDGET FOR ENTIRE MODEL AT END OF TIME STEP    6, STRESS PERIOD  15
  ---------------------------------------------------------------------------------------------------

     CUMULATIVE VOLUME      L**3       RATES FOR THIS TIME STEP      L**3/T          PACKAGE NAME    
     ------------------                 ------------------------                     ----------------

           IN:                                      IN:
           ---                                      ---
              STO-SS =     3978423.4219                STO-SS =       15419.3247     STORAGE                          
              STO-SY =      168747.5718                STO-SY =         679.7946     STORAGE                          
                 WEL =           0.0000                   WEL =           0.0000     WEL-1                            
                RCHA =    20528769.0563                  RCHA =      128250.0000     RCH-1                            
                 CHD =           0.0000                   CHD =           0.0000     CHD-FROM-IBOUND                  

            TOTAL IN =    24675940.0501              TOTAL IN =      144349.1194

          OUT:                                     OUT:
          ----                                     ----
              STO-SS =    13731858.1158                STO-SS =       97379.9310     STORAGE                          
              STO-SY =      573047.1334                STO-SY =        4057.2925     STORAGE                          
                 WEL =      957034.1608                   WEL =       20000.0000     WEL-1                            
                RCHA =           0.0000                  RCHA =           0.0000     RCH-1                            
                 CHD =     9414019.0546                   CHD =       22911.8961     CHD-FROM-IBOUND                  

           TOTAL OUT =    24675958.4646             TOTAL OUT =      144349.1196

            IN - OUT =         -18.4146              IN - OUT =      -2.4699E-04

 PERCENT DISCREPANCY =          -0.00     PERCENT DISCREPANCY =          -0.00




         TIME SUMMARY AT END OF TIME STEP    6 IN STRESS PERIOD   15
                    SECONDS     MINUTES      HOURS       DAYS        YEARS
                    -----------------------------------------------------------
   TIME STEP LENGTH 3.64853E+05  6080.9      101.35      4.2228     1.15615E-02
 STRESS PERIOD TIME 1.45599E+06  24266.      404.44      16.852     4.61375E-02
         TOTAL TIME 3.57568E+07 5.95946E+05  9932.4      413.85      1.1331    


end timestep


start timestep kper="15" kstp="7" mode="normal"

 UBDSV1 SAVING     FLOW-JA-FACE ON UNIT   1015 AT TIME STEP      7, STRESS PERIOD     15
 UBDSV06 SAVING              WEL IN MODEL MUMODEL          PACKAGE MUMODEL         CONNECTED TO MODEL MUMODEL          PACKAGE WEL-1            ON UNIT   1015 AT TIME STEP      7, STRESS PERIOD     15
 UBDSV06 SAVING             RCHA IN MODEL MUMODEL          PACKAGE MUMODEL         CONNECTED TO MODEL MUMODEL          PACKAGE RCH-1            ON UNIT   1015 AT TIME STEP      7, STRESS PERIOD     15

 WEL PACKAGE (WEL-1) FLOW RATES   PERIOD     15   STEP        7
 -----------------------------------------------
   NUMBER   CELLID                    RATE      
 -----------------------------------------------
     1      (1,5,5)              -20000.000     
     2      (1,11,5)              0.0000000     
     3      (1,5,5)               0.0000000     
 -----------------------------------------------




 CHD PACKAGE (CHD-FROM-IBOUND) FLOW RATES   PERIOD     15   STEP        7
 -----------------------------------------------
   NUMBER   CELLID                    RATE      
 -----------------------------------------------
     1      (1,1,1)              -1278.3636     
     2      (1,1,2)              -1278.3621     
     3      (1,1,3)              -1278.3607     
     4      (1,1,4)              -1278.3525     
     5      (1,1,5)              -1278.2726     
     6      (1,1,6)              -1278.3545     
     7      (1,1,7)              -1278.3642     
     8      (1,1,8)              -1278.3660     
     9      (1,1,9)              -1278.3671     
     10     (1,21,1)             -1278.3655     
     11     (1,21,2)             -1278.3645     
     12     (1,21,3)             -1278.3634     
     13     (1,21,4)             -1278.3625     
     14     (1,21,5)             -1278.3618     
     15     (1,21,6)             -1278.3615     
     16     (1,21,7)             -1278.3624     
     17     (1,21,8)             -1278.3646     
     18     (1,21,9)             -1278.3672     
 -----------------------------------------------




 HEAD WILL BE SAVED ON UNIT 1016 AT END OF TIME STEP    7, STRESS PERIOD   15


  VOLUME BUDGET FOR ENTIRE MODEL AT END OF TIME STEP    7, STRESS PERIOD  15
  ---------------------------------------------------------------------------------------------------

     CUMULATIVE VOLUME      L**3       RATES FOR THIS TIME STEP      L**3/T          PACKAGE NAME    
     ------------------                 ------------------------                     ----------------

           IN:                                      IN:
           ---                                      ---
              STO-SS =     4055858.7755                STO-SS =       15281.0653     STORAGE                          
              STO-SY =      172171.0248                STO-SY =         675.5830     STORAGE                          
                 WEL =           0.0000                   WEL =           0.0000     WEL-1                            
                RCHA =    21178663.8034                  RCHA =      128250.0000     RCH-1                            
                 CHD =           0.0000                   CHD =           0.0000     CHD-FROM-IBOUND                  

            TOTAL IN =    25406693.6038              TOTAL IN =      144206.6484

          OUT:                                     OUT:
          ----                                     ----
              STO-SS =    14224155.8080                STO-SS =       97149.8528     STORAGE                          
              STO-SY =      593551.6761                STO-SY =        4046.3592     STORAGE                          
                 WEL =     1058382.2695                   WEL =       20000.0000     WEL-1                            
                RCHA =           0.0000                  RCHA =           0.0000     RCH-1                            
                 CHD =     9530622.2667                   CHD =       23010.4367     CHD-FROM-IBOUND                  

           TOTAL OUT =    25406712.0204             TOTAL OUT =      144206.6488

            IN - OUT =         -18.4166              IN - OUT =      -4.0845E-04

 PERCENT DISCREPANCY =          -0.00     PERCENT DISCREPANCY =          -0.00




         TIME SUMMARY AT END OF TIME STEP    7 IN STRESS PERIOD   15
                    SECONDS     MINUTES      HOURS       DAYS        YEARS
                    -----------------------------------------------------------
   TIME STEP LENGTH 4.37824E+05  7297.1      121.62      5.0674     1.38738E-02
 STRESS PERIOD TIME 1.89381E+06  31564.      526.06      21.919     6.00113E-02
         TOTAL TIME 3.61946E+07 6.03244E+05  10054.      418.92      1.1469    


end timestep


start timestep kper="15" kstp="8" mode="normal"

 UBDSV1 SAVING     FLOW-JA-FACE ON UNIT   1015 AT TIME STEP      8, STRESS PERIOD     15
 UBDSV06 SAVING              WEL IN MODEL MUMODEL          PACKAGE MUMODEL         CONNECTED TO MODEL MUMODEL          PACKAGE WEL-1            ON UNIT   1015 AT TIME STEP      8, STRESS PERIOD     15
 UBDSV06 SAVING             RCHA IN MODEL MUMODEL          PACKAGE MUMODEL         CONNECTED TO MODEL MUMODEL          PACKAGE RCH-1            ON UNIT   1015 AT TIME STEP      8, STRESS PERIOD     15

 WEL PACKAGE (WEL-1) FLOW RATES   PERIOD     15   STEP        8
 -----------------------------------------------
   NUMBER   CELLID                    RATE      
 -----------------------------------------------
     1      (1,5,5)              -20000.000     
     2      (1,11,5)              0.0000000     
     3      (1,5,5)               0.0000000     
 -----------------------------------------------




 CHD PACKAGE (CHD-FROM-IBOUND) FLOW RATES   PERIOD     15   STEP        8
 -----------------------------------------------
   NUMBER   CELLID                    RATE      
 -----------------------------------------------
     1      (1,1,1)              -1284.8654     
     2      (1,1,2)              -1284.8638     
     3      (1,1,3)              -1284.8622     
     4      (1,1,4)              -1284.8488     
     5      (1,1,5)              -1284.7336     
     6      (1,1,6)              -1284.8508     
     7      (1,1,7)              -1284.8656     
     8      (1,1,8)              -1284.8677     
     9      (1,1,9)              -1284.8688     
     10     (1,21,1)             -1284.8673     
     11     (1,21,2)             -1284.8662     
     12     (1,21,3)             -1284.8652     
     13     (1,21,4)             -1284.8643     
     14     (1,21,5)             -1284.8636     
     15     (1,21,6)             -1284.8634     
     16     (1,21,7)             -1284.8642     
     17     (1,21,8)             -1284.8664     
     18     (1,21,9)             -1284.8690     
 -----------------------------------------------




 HEAD WILL BE SAVED ON UNIT 1016 AT END OF TIME STEP    8, STRESS PERIOD   15


  VOLUME BUDGET FOR ENTIRE MODEL AT END OF TIME STEP    8, STRESS PERIOD  15
  ---------------------------------------------------------------------------------------------------

     CUMULATIVE VOLUME      L**3       RATES FOR THIS TIME STEP      L**3/T          PACKAGE NAME    
     ------------------                 ------------------------                     ----------------

           IN:                                      IN:
           ---                                      ---
              STO-SS =     4147717.1973                STO-SS =       15106.0904     STORAGE                          
              STO-SY =      176244.6611                STO-SY =         669.9083     STORAGE                          
                 WEL =           0.0000                   WEL =           0.0000     WEL-1                            
                RCHA =    21958537.5000                  RCHA =      128250.0000     RCH-1                            
                 CHD =           0.0000                   CHD =           0.0000     CHD-FROM-IBOUND                  

            TOTAL IN =    26282499.3585              TOTAL IN =      144025.9987

          OUT:                                     OUT:
          ----                                     ----
              STO-SS =    14813184.9541                STO-SS =       96865.6698     STORAGE                          
              STO-SY =      618075.3642                STO-SY =        4032.9133     STORAGE                          
                 WEL =     1180000.0000                   WEL =       20000.0000     WEL-1                            
                RCHA =           0.0000                  RCHA =           0.0000     RCH-1                            
                 CHD =     9671257.4609                   CHD =       23127.4163     CHD-FROM-IBOUND                  

           TOTAL OUT =    26282517.7792             TOTAL OUT =      144025.9994

            IN - OUT =         -18.4207              IN - OUT =      -6.6784E-04

 PERCENT DISCREPANCY =          -0.00     PERCENT DISCREPANCY =          -0.00




         TIME SUMMARY AT END OF TIME STEP    8 IN STRESS PERIOD   15
                    SECONDS     MINUTES      HOURS       DAYS        YEARS
                    -----------------------------------------------------------
   TIME STEP LENGTH 5.25389E+05  8756.5      145.94      6.0809     1.66486E-02
 STRESS PERIOD TIME 2.41920E+06  40320.      672.00      28.000     7.66598E-02
         TOTAL TIME 3.67200E+07 6.12000E+05  10200.      425.00      1.1636    


end timestep


start timestep kper="16" kstp="1" mode="normal"


 OUTPUT CONTROL FOR STRESS PERIOD 16 IS REPEATED USING SETTINGS FROM A PREVIOUS STRESS PERIOD.


 STRESS PERIOD 16 IS TRANSIENT


 REUSING WELS FROM LAST STRESS PERIOD

                 RECHARGE =  0.4000000E-02

 REUSING CHDS FROM LAST STRESS PERIOD
 UBDSV1 SAVING     FLOW-JA-FACE ON UNIT   1015 AT TIME STEP      1, STRESS PERIOD     16
 UBDSV06 SAVING              WEL IN MODEL MUMODEL          PACKAGE MUMODEL         CONNECTED TO MODEL MUMODEL          PACKAGE WEL-1            ON UNIT   1015 AT TIME STEP      1, STRESS PERIOD     16
 UBDSV06 SAVING             RCHA IN MODEL MUMODEL          PACKAGE MUMODEL         CONNECTED TO MODEL MUMODEL          PACKAGE RCH-1            ON UNIT   1015 AT TIME STEP      1, STRESS PERIOD     16

 WEL PACKAGE (WEL-1) FLOW RATES   PERIOD     16   STEP        1
 -----------------------------------------------
   NUMBER   CELLID                    RATE      
 -----------------------------------------------
     1      (1,5,5)              -20000.000     
     2      (1,11,5)              0.0000000     
     3      (1,5,5)               0.0000000     
 -----------------------------------------------




 CHD PACKAGE (CHD-FROM-IBOUND) FLOW RATES   PERIOD     16   STEP        1
 -----------------------------------------------
   NUMBER   CELLID                    RATE      
 -----------------------------------------------
     1      (1,1,1)              -1287.7594     
     2      (1,1,2)              -1287.7578     
     3      (1,1,3)              -1287.7560     
     4      (1,1,4)              -1287.7410     
     5      (1,1,5)              -1287.6141     
     6      (1,1,6)              -1287.7430     
     7      (1,1,7)              -1287.7595     
     8      (1,1,8)              -1287.7617     
     9      (1,1,9)              -1287.7628     
     10     (1,21,1)             -1287.7613     
     11     (1,21,2)             -1287.7603     
     12     (1,21,3)             -1287.7592     
     13     (1,21,4)             -1287.7583     
     14     (1,21,5)             -1287.7576     
     15     (1,21,6)             -1287.7574     
     16     (1,21,7)             -1287.7582     
     17     (1,21,8)             -1287.7605     
     18     (1,21,9)             -1287.7630     
 -----------------------------------------------




 HEAD WILL BE SAVED ON UNIT 1016 AT END OF TIME STEP    1, STRESS PERIOD   16


  VOLUME BUDGET FOR ENTIRE MODEL AT END OF TIME STEP    1, STRESS PERIOD  16
  ---------------------------------------------------------------------------------------------------

     CUMULATIVE VOLUME      L**3       RATES FOR THIS TIME STEP      L**3/T          PACKAGE NAME    
     ------------------                 ------------------------                     ----------------

           IN:                                      IN:
           ---                                      ---
              STO-SS =     4173742.5549                STO-SS =       13851.4381     STORAGE                          
              STO-SY =      177405.5570                STO-SY =         617.8619     STORAGE                          
                 WEL =           0.0000                   WEL =           0.0000     WEL-1                            
                RCHA =    22279828.0482                  RCHA =      171000.0000     RCH-1                            
                 CHD =           0.0000                   CHD =           0.0000     CHD-FROM-IBOUND                  

            TOTAL IN =    26630976.1601              TOTAL IN =      185469.3000

          OUT:                                     OUT:
          ----                                     ----
              STO-SS =    15069842.7593                STO-SS =      136600.6095     STORAGE                          
              STO-SY =      628764.7572                STO-SY =        5689.2001     STORAGE                          
                 WEL =     1217577.8419                   WEL =       20000.0000     WEL-1                            
                RCHA =           0.0000                  RCHA =           0.0000     RCH-1                            
                 CHD =     9714809.2233                   CHD =       23179.4910     CHD-FROM-IBOUND                  

           TOTAL OUT =    26630994.5817             TOTAL OUT =      185469.3005

            IN - OUT =         -18.4217              IN - OUT =      -5.0306E-04

 PERCENT DISCREPANCY =          -0.00     PERCENT DISCREPANCY =          -0.00




         TIME SUMMARY AT END OF TIME STEP    1 IN STRESS PERIOD   16
                    SECONDS     MINUTES      HOURS       DAYS        YEARS
                    -----------------------------------------------------------
   TIME STEP LENGTH 1.62336E+05  2705.6      45.093      1.8789     5.14413E-03
 STRESS PERIOD TIME 1.62336E+05  2705.6      45.093      1.8789     5.14413E-03
         TOTAL TIME 3.68823E+07 6.14706E+05  10245.      426.88      1.1687    


end timestep


start timestep kper="16" kstp="2" mode="normal"

 UBDSV1 SAVING     FLOW-JA-FACE ON UNIT   1015 AT TIME STEP      2, STRESS PERIOD     16
 UBDSV06 SAVING              WEL IN MODEL MUMODEL          PACKAGE MUMODEL         CONNECTED TO MODEL MUMODEL          PACKAGE WEL-1            ON UNIT   1015 AT TIME STEP      2, STRESS PERIOD     16
 UBDSV06 SAVING             RCHA IN MODEL MUMODEL          PACKAGE MUMODEL         CONNECTED TO MODEL MUMODEL          PACKAGE RCH-1            ON UNIT   1015 AT TIME STEP      2, STRESS PERIOD     16

 WEL PACKAGE (WEL-1) FLOW RATES   PERIOD     16   STEP        2
 -----------------------------------------------
   NUMBER   CELLID                    RATE      
 -----------------------------------------------
     1      (1,5,5)              -20000.000     
     2      (1,11,5)              0.0000000     
     3      (1,5,5)               0.0000000     
 -----------------------------------------------




 CHD PACKAGE (CHD-FROM-IBOUND) FLOW RATES   PERIOD     16   STEP        2
 -----------------------------------------------
   NUMBER   CELLID                    RATE      
 -----------------------------------------------
     1      (1,1,1)              -1291.2182     
     2      (1,1,2)              -1291.2166     
     3      (1,1,3)              -1291.2147     
     4      (1,1,4)              -1291.1974     
     5      (1,1,5)              -1291.0552     
     6      (1,1,6)              -1291.1993     
     7      (1,1,7)              -1291.2181     
     8      (1,1,8)              -1291.2205     
     9      (1,1,9)              -1291.2216     
     10     (1,21,1)             -1291.2200     
     11     (1,21,2)             -1291.2190     
     12     (1,21,3)             -1291.2180     
     13     (1,21,4)             -1291.2171     
     14     (1,21,5)             -1291.2164     
     15     (1,21,6)             -1291.2162     
     16     (1,21,7)             -1291.2171     
     17     (1,21,8)             -1291.2193     
     18     (1,21,9)             -1291.2218     
 -----------------------------------------------




 HEAD WILL BE SAVED ON UNIT 1016 AT END OF TIME STEP    2, STRESS PERIOD   16


  VOLUME BUDGET FOR ENTIRE MODEL AT END OF TIME STEP    2, STRESS PERIOD  16
  ---------------------------------------------------------------------------------------------------

     CUMULATIVE VOLUME      L**3       RATES FOR THIS TIME STEP      L**3/T          PACKAGE NAME    
     ------------------                 ------------------------                     ----------------

           IN:                                      IN:
           ---                                      ---
              STO-SS =     4204822.1720                STO-SS =       13784.5494     STORAGE                          
              STO-SY =      178793.3415                STO-SY =         615.5154     STORAGE                          
                 WEL =           0.0000                   WEL =           0.0000     WEL-1                            
                RCHA =    22665376.7060                  RCHA =      171000.0000     RCH-1                            
                 CHD =           0.0000                   CHD =           0.0000     CHD-FROM-IBOUND                  

            TOTAL IN =    27048992.2194              TOTAL IN =      185400.0648

          OUT:                                     OUT:
          ----                                     ----
              STO-SS =    15377549.7809                STO-SS =      136475.3829     STORAGE                          
              STO-SY =      641577.9513                STO-SY =        5682.9563     STORAGE                          
                 WEL =     1262671.2522                   WEL =       20000.0000     WEL-1                            
                RCHA =           0.0000                  RCHA =           0.0000     RCH-1                            
                 CHD =     9767211.6586                   CHD =       23241.7264     CHD-FROM-IBOUND                  

           TOTAL OUT =    27049010.6430             TOTAL OUT =      185400.0657

            IN - OUT =         -18.4236              IN - OUT =      -8.5663E-04

 PERCENT DISCREPANCY =          -0.00     PERCENT DISCREPANCY =          -0.00




         TIME SUMMARY AT END OF TIME STEP    2 IN STRESS PERIOD   16
                    SECONDS     MINUTES      HOURS       DAYS        YEARS
                    -----------------------------------------------------------
   TIME STEP LENGTH 1.94804E+05  3246.7      54.112      2.2547     6.17295E-03
 STRESS PERIOD TIME 3.57140E+05  5952.3      99.206      4.1336     1.13171E-02
         TOTAL TIME 3.70771E+07 6.17952E+05  10299.      429.13      1.1749    


end timestep


start timestep kper="16" kstp="3" mode="normal"

 UBDSV1 SAVING     FLOW-JA-FACE ON UNIT   1015 AT TIME STEP      3, STRESS PERIOD     16
 UBDSV06 SAVING              WEL IN MODEL MUMODEL          PACKAGE MUMODEL         CONNECTED TO MODEL MUMODEL          PACKAGE WEL-1            ON UNIT   1015 AT TIME STEP      3, STRESS PERIOD     16
 UBDSV06 SAVING             RCHA IN MODEL MUMODEL          PACKAGE MUMODEL         CONNECTED TO MODEL MUMODEL          PACKAGE RCH-1            ON UNIT   1015 AT TIME STEP      3, STRESS PERIOD     16

 WEL PACKAGE (WEL-1) FLOW RATES   PERIOD     16   STEP        3
 -----------------------------------------------
   NUMBER   CELLID                    RATE      
 -----------------------------------------------
     1      (1,5,5)              -20000.000     
     2      (1,11,5)              0.0000000     
     3      (1,5,5)               0.0000000     
 -----------------------------------------------




 CHD PACKAGE (CHD-FROM-IBOUND) FLOW RATES   PERIOD     16   STEP        3
 -----------------------------------------------
   NUMBER   CELLID                    RATE      
 -----------------------------------------------
     1      (1,1,1)              -1295.3488     
     2      (1,1,2)              -1295.3473     
     3      (1,1,3)              -1295.3450     
     4      (1,1,4)              -1295.3246     
     5      (1,1,5)              -1295.1624     
     6      (1,1,6)              -1295.3266     
     7      (1,1,7)              -1295.3484     
     8      (1,1,8)              -1295.3511     
     9      (1,1,9)              -1295.3522     
     10     (1,21,1)             -1295.3506     
     11     (1,21,2)             -1295.3497     
     12     (1,21,3)             -1295.3486     
     13     (1,21,4)             -1295.3477     
     14     (1,21,5)             -1295.3470     
     15     (1,21,6)             -1295.3468     
     16     (1,21,7)             -1295.3477     
     17     (1,21,8)             -1295.3499     
     18     (1,21,9)             -1295.3524     
 -----------------------------------------------




 HEAD WILL BE SAVED ON UNIT 1016 AT END OF TIME STEP    3, STRESS PERIOD   16


  VOLUME BUDGET FOR ENTIRE MODEL AT END OF TIME STEP    3, STRESS PERIOD  16
  ---------------------------------------------------------------------------------------------------

     CUMULATIVE VOLUME      L**3       RATES FOR THIS TIME STEP      L**3/T          PACKAGE NAME    
     ------------------                 ------------------------                     ----------------

           IN:                                      IN:
           ---                                      ---
              STO-SS =     4241896.4743                STO-SS =       13702.7791     STORAGE                          
              STO-SY =      180450.7874                STO-SY =         612.5972     STORAGE                          
                 WEL =           0.0000                   WEL =           0.0000     WEL-1                            
                RCHA =    23128035.0954                  RCHA =      171000.0000     RCH-1                            
                 CHD =           0.0000                   CHD =           0.0000     CHD-FROM-IBOUND                  

            TOTAL IN =    27550382.3571              TOTAL IN =      185315.3763

          OUT:                                     OUT:
          ----                                     ----
              STO-SS =    15746388.3840                STO-SS =      136323.9111     STORAGE                          
              STO-SY =      656933.3895                STO-SY =        5675.4184     STORAGE                          
                 WEL =     1316783.3445                   WEL =       20000.0000     WEL-1                            
                RCHA =           0.0000                  RCHA =           0.0000     RCH-1                            
                 CHD =     9830295.6628                   CHD =       23316.0469     CHD-FROM-IBOUND                  

           TOTAL OUT =    27550400.7809             TOTAL OUT =      185315.3764

            IN - OUT =         -18.4237              IN - OUT =      -5.5645E-05

 PERCENT DISCREPANCY =          -0.00     PERCENT DISCREPANCY =          -0.00




         TIME SUMMARY AT END OF TIME STEP    3 IN STRESS PERIOD   16
                    SECONDS     MINUTES      HOURS       DAYS        YEARS
                    -----------------------------------------------------------
   TIME STEP LENGTH 2.33764E+05  3896.1      64.935      2.7056     7.40754E-03
 STRESS PERIOD TIME 5.90904E+05  9848.4      164.14      6.8392     1.87246E-02
         TOTAL TIME 3.73109E+07 6.21848E+05  10364.      431.84      1.1823    


end timestep


start timestep kper="16" kstp="4" mode="normal"

 UBDSV1 SAVING     FLOW-JA-FACE ON UNIT   1015 AT TIME STEP      4, STRESS PERIOD     16
 UBDSV06 SAVING              WEL IN MODEL MUMODEL          PACKAGE MUMODEL         CONNECTED TO MODEL MUMODEL          PACKAGE WEL-1            ON UNIT   1015 AT TIME STEP      4, STRESS PERIOD     16
 UBDSV06 SAVING             RCHA IN MODEL MUMODEL          PACKAGE MUMODEL         CONNECTED TO MODEL MUMODEL          PACKAGE RCH-1            ON UNIT   1015 AT TIME STEP      4, STRESS PERIOD     16

 WEL PACKAGE (WEL-1) FLOW RATES   PERIOD     16   STEP        4
 -----------------------------------------------
   NUMBER   CELLID                    RATE      
 -----------------------------------------------
     1      (1,5,5)              -20000.000     
     2      (1,11,5)              0.0000000     
     3      (1,5,5)               0.0000000     
 -----------------------------------------------




 CHD PACKAGE (CHD-FROM-IBOUND) FLOW RATES   PERIOD     16   STEP        4
 -----------------------------------------------
   NUMBER   CELLID                    RATE      
 -----------------------------------------------
     1      (1,1,1)              -1300.2772     
     2      (1,1,2)              -1300.2756     
     3      (1,1,3)              -1300.2731     
     4      (1,1,4)              -1300.2483     
     5      (1,1,5)              -1300.0593     
     6      (1,1,6)              -1300.2502     
     7      (1,1,7)              -1300.2764     
     8      (1,1,8)              -1300.2794     
     9      (1,1,9)              -1300.2806     
     10     (1,21,1)             -1300.2790     
     11     (1,21,2)             -1300.2780     
     12     (1,21,3)             -1300.2770     
     13     (1,21,4)             -1300.2761     
     14     (1,21,5)             -1300.2754     
     15     (1,21,6)             -1300.2752     
     16     (1,21,7)             -1300.2761     
     17     (1,21,8)             -1300.2783     
     18     (1,21,9)             -1300.2808     
 -----------------------------------------------




 HEAD WILL BE SAVED ON UNIT 1016 AT END OF TIME STEP    4, STRESS PERIOD   16


  VOLUME BUDGET FOR ENTIRE MODEL AT END OF TIME STEP    4, STRESS PERIOD  16
  ---------------------------------------------------------------------------------------------------

     CUMULATIVE VOLUME      L**3       RATES FOR THIS TIME STEP      L**3/T          PACKAGE NAME    
     ------------------                 ------------------------                     ----------------

           IN:                                      IN:
           ---                                      ---
              STO-SS =     4286060.6201                STO-SS =       13602.6730     STORAGE                          
              STO-SY =      182427.9091                STO-SY =         608.9587     STORAGE                          
                 WEL =           0.0000                   WEL =           0.0000     WEL-1                            
                RCHA =    23683225.1627                  RCHA =      171000.0000     RCH-1                            
                 CHD =           0.0000                   CHD =           0.0000     CHD-FROM-IBOUND                  

            TOTAL IN =    28151713.6919              TOTAL IN =      185211.6317

          OUT:                                     OUT:
          ----                                     ----
              STO-SS =    16188399.5493                STO-SS =      136140.6007     STORAGE                          
              STO-SY =      675330.3597                STO-SY =        5666.3152     STORAGE                          
                 WEL =     1381717.8553                   WEL =       20000.0000     WEL-1                            
                RCHA =           0.0000                  RCHA =           0.0000     RCH-1                            
                 CHD =     9906284.3517                   CHD =       23404.7159     CHD-FROM-IBOUND                  

           TOTAL OUT =    28151732.1159             TOTAL OUT =      185211.6318

            IN - OUT =         -18.4240              IN - OUT =      -9.6484E-05

 PERCENT DISCREPANCY =          -0.00     PERCENT DISCREPANCY =          -0.00




         TIME SUMMARY AT END OF TIME STEP    4 IN STRESS PERIOD   16
                    SECONDS     MINUTES      HOURS       DAYS        YEARS
                    -----------------------------------------------------------
   TIME STEP LENGTH 2.80517E+05  4675.3      77.921      3.2467     8.88905E-03
 STRESS PERIOD TIME 8.71421E+05  14524.      242.06      10.086     2.76137E-02
         TOTAL TIME 3.75914E+07 6.26524E+05  10442.      435.09      1.1912    


end timestep


start timestep kper="16" kstp="5" mode="normal"

 UBDSV1 SAVING     FLOW-JA-FACE ON UNIT   1015 AT TIME STEP      5, STRESS PERIOD     16
 UBDSV06 SAVING              WEL IN MODEL MUMODEL          PACKAGE MUMODEL         CONNECTED TO MODEL MUMODEL          PACKAGE WEL-1            ON UNIT   1015 AT TIME STEP      5, STRESS PERIOD     16
 UBDSV06 SAVING             RCHA IN MODEL MUMODEL          PACKAGE MUMODEL         CONNECTED TO MODEL MUMODEL          PACKAGE RCH-1            ON UNIT   1015 AT TIME STEP      5, STRESS PERIOD     16

 WEL PACKAGE (WEL-1) FLOW RATES   PERIOD     16   STEP        5
 -----------------------------------------------
   NUMBER   CELLID                    RATE      
 -----------------------------------------------
     1      (1,5,5)              -20000.000     
     2      (1,11,5)              0.0000000     
     3      (1,5,5)               0.0000000     
 -----------------------------------------------




 CHD PACKAGE (CHD-FROM-IBOUND) FLOW RATES   PERIOD     16   STEP        5
 -----------------------------------------------
   NUMBER   CELLID                    RATE      
 -----------------------------------------------
     1      (1,1,1)              -1306.1509     
     2      (1,1,2)              -1306.1494     
     3      (1,1,3)              -1306.1463     
     4      (1,1,4)              -1306.1153     
     5      (1,1,5)              -1305.8901     
     6      (1,1,6)              -1306.1173     
     7      (1,1,7)              -1306.1496     
     8      (1,1,8)              -1306.1531     
     9      (1,1,9)              -1306.1543     
     10     (1,21,1)             -1306.1527     
     11     (1,21,2)             -1306.1518     
     12     (1,21,3)             -1306.1507     
     13     (1,21,4)             -1306.1498     
     14     (1,21,5)             -1306.1492     
     15     (1,21,6)             -1306.1490     
     16     (1,21,7)             -1306.1499     
     17     (1,21,8)             -1306.1521     
     18     (1,21,9)             -1306.1546     
 -----------------------------------------------




 HEAD WILL BE SAVED ON UNIT 1016 AT END OF TIME STEP    5, STRESS PERIOD   16


  VOLUME BUDGET FOR ENTIRE MODEL AT END OF TIME STEP    5, STRESS PERIOD  16
  ---------------------------------------------------------------------------------------------------

     CUMULATIVE VOLUME      L**3       RATES FOR THIS TIME STEP      L**3/T          PACKAGE NAME    
     ------------------                 ------------------------                     ----------------

           IN:                                      IN:
           ---                                      ---
              STO-SS =     4338579.6085                STO-SS =       13479.9887     STORAGE                          
              STO-SY =      184782.7453                STO-SY =         604.4131     STORAGE                          
                 WEL =           0.0000                   WEL =           0.0000     WEL-1                            
                RCHA =    24349453.2434                  RCHA =      171000.0000     RCH-1                            
                 CHD =           0.0000                   CHD =           0.0000     CHD-FROM-IBOUND                  

            TOTAL IN =    28872815.5972              TOTAL IN =      185084.4018

          OUT:                                     OUT:
          ----                                     ----
              STO-SS =    16717948.3898                STO-SS =      135918.6956     STORAGE                          
              STO-SY =      697363.8872                STO-SY =        5655.3203     STORAGE                          
                 WEL =     1459639.2682                   WEL =       20000.0000     WEL-1                            
                RCHA =           0.0000                  RCHA =           0.0000     RCH-1                            
                 CHD =     9997882.4767                   CHD =       23510.3860     CHD-FROM-IBOUND                  

           TOTAL OUT =    28872834.0219             TOTAL OUT =      185084.4020

            IN - OUT =         -18.4247              IN - OUT =      -1.5646E-04

 PERCENT DISCREPANCY =          -0.00     PERCENT DISCREPANCY =          -0.00




         TIME SUMMARY AT END OF TIME STEP    5 IN STRESS PERIOD   16
                    SECONDS     MINUTES      HOURS       DAYS        YEARS
                    -----------------------------------------------------------
   TIME STEP LENGTH 3.36621E+05  5610.3      93.506      3.8961     1.06669E-02
 STRESS PERIOD TIME 1.20804E+06  20134.      335.57      13.982     3.82805E-02
         TOTAL TIME 3.79280E+07 6.32134E+05  10536.      438.98      1.2019    


end timestep


start timestep kper="16" kstp="6" mode="normal"

 UBDSV1 SAVING     FLOW-JA-FACE ON UNIT   1015 AT TIME STEP      6, STRESS PERIOD     16
 UBDSV06 SAVING              WEL IN MODEL MUMODEL          PACKAGE MUMODEL         CONNECTED TO MODEL MUMODEL          PACKAGE WEL-1            ON UNIT   1015 AT TIME STEP      6, STRESS PERIOD     16
 UBDSV06 SAVING             RCHA IN MODEL MUMODEL          PACKAGE MUMODEL         CONNECTED TO MODEL MUMODEL          PACKAGE RCH-1            ON UNIT   1015 AT TIME STEP      6, STRESS PERIOD     16

 WEL PACKAGE (WEL-1) FLOW RATES   PERIOD     16   STEP        6
 -----------------------------------------------
   NUMBER   CELLID                    RATE      
 -----------------------------------------------
     1      (1,5,5)              -20000.000     
     2      (1,11,5)              0.0000000     
     3      (1,5,5)               0.0000000     
 -----------------------------------------------




 CHD PACKAGE (CHD-FROM-IBOUND) FLOW RATES   PERIOD     16   STEP        6
 -----------------------------------------------
   NUMBER   CELLID                    RATE      
 -----------------------------------------------
     1      (1,1,1)              -1313.1424     
     2      (1,1,2)              -1313.1408     
     3      (1,1,3)              -1313.1369     
     4      (1,1,4)              -1313.0970     
     5      (1,1,5)              -1312.8219     
     6      (1,1,6)              -1313.0989     
     7      (1,1,7)              -1313.1403     
     8      (1,1,8)              -1313.1446     
     9      (1,1,9)              -1313.1458     
     10     (1,21,1)             -1313.1442     
     11     (1,21,2)             -1313.1432     
     12     (1,21,3)             -1313.1422     
     13     (1,21,4)             -1313.1413     
     14     (1,21,5)             -1313.1407     
     15     (1,21,6)             -1313.1405     
     16     (1,21,7)             -1313.1414     
     17     (1,21,8)             -1313.1436     
     18     (1,21,9)             -1313.1460     
 -----------------------------------------------




 HEAD WILL BE SAVED ON UNIT 1016 AT END OF TIME STEP    6, STRESS PERIOD   16


  VOLUME BUDGET FOR ENTIRE MODEL AT END OF TIME STEP    6, STRESS PERIOD  16
  ---------------------------------------------------------------------------------------------------

     CUMULATIVE VOLUME      L**3       RATES FOR THIS TIME STEP      L**3/T          PACKAGE NAME    
     ------------------                 ------------------------                     ----------------

           IN:                                      IN:
           ---                                      ---
              STO-SS =     4400899.1059                STO-SS =       13329.5618     STORAGE                          
              STO-SY =      187581.9694                STO-SY =         598.7281     STORAGE                          
                 WEL =           0.0000                   WEL =           0.0000     WEL-1                            
                RCHA =    25148926.9403                  RCHA =      171000.0000     RCH-1                            
                 CHD =           0.0000                   CHD =           0.0000     CHD-FROM-IBOUND                  

            TOTAL IN =    29737408.0156              TOTAL IN =      184928.2898

          OUT:                                     OUT:
          ----                                     ----
              STO-SS =    17352151.2109                STO-SS =      135650.0944     STORAGE                          
              STO-SY =      723742.0494                STO-SY =        5642.0440     STORAGE                          
                 WEL =     1553144.9638                   WEL =       20000.0000     WEL-1                            
                RCHA =           0.0000                  RCHA =           0.0000     RCH-1                            
                 CHD =    10108388.2173                   CHD =       23636.1518     CHD-FROM-IBOUND                  

           TOTAL OUT =    29737426.4414             TOTAL OUT =      184928.2901

            IN - OUT =         -18.4259              IN - OUT =      -2.5911E-04

 PERCENT DISCREPANCY =          -0.00     PERCENT DISCREPANCY =          -0.00




         TIME SUMMARY AT END OF TIME STEP    6 IN STRESS PERIOD   16
                    SECONDS     MINUTES      HOURS       DAYS        YEARS
                    -----------------------------------------------------------
   TIME STEP LENGTH 4.03945E+05  6732.4      112.21      4.6753     1.28002E-02
 STRESS PERIOD TIME 1.61199E+06  26866.      447.77      18.657     5.10808E-02
         TOTAL TIME 3.83320E+07 6.38866E+05  10648.      443.66      1.2147    


end timestep


start timestep kper="16" kstp="7" mode="normal"

 UBDSV1 SAVING     FLOW-JA-FACE ON UNIT   1015 AT TIME STEP      7, STRESS PERIOD     16
 UBDSV06 SAVING              WEL IN MODEL MUMODEL          PACKAGE MUMODEL         CONNECTED TO MODEL MUMODEL          PACKAGE WEL-1            ON UNIT   1015 AT TIME STEP      7, STRESS PERIOD     16
 UBDSV06 SAVING             RCHA IN MODEL MUMODEL          PACKAGE MUMODEL         CONNECTED TO MODEL MUMODEL          PACKAGE RCH-1            ON UNIT   1015 AT TIME STEP      7, STRESS PERIOD     16

 WEL PACKAGE (WEL-1) FLOW RATES   PERIOD     16   STEP        7
 -----------------------------------------------
   NUMBER   CELLID                    RATE      
 -----------------------------------------------
     1      (1,5,5)              -20000.000     
     2      (1,11,5)              0.0000000     
     3      (1,5,5)               0.0000000     
 -----------------------------------------------




 CHD PACKAGE (CHD-FROM-IBOUND) FLOW RATES   PERIOD     16   STEP        7
 -----------------------------------------------
   NUMBER   CELLID                    RATE      
 -----------------------------------------------
     1      (1,1,1)              -1321.4517     
     2      (1,1,2)              -1321.4501     
     3      (1,1,3)              -1321.4449     
     4      (1,1,4)              -1321.3916     
     5      (1,1,5)              -1321.0470     
     6      (1,1,6)              -1321.3935     
     7      (1,1,7)              -1321.4482     
     8      (1,1,8)              -1321.4538     
     9      (1,1,9)              -1321.4550     
     10     (1,21,1)             -1321.4535     
     11     (1,21,2)             -1321.4526     
     12     (1,21,3)             -1321.4515     
     13     (1,21,4)             -1321.4507     
     14     (1,21,5)             -1321.4500     
     15     (1,21,6)             -1321.4499     
     16     (1,21,7)             -1321.4508     
     17     (1,21,8)             -1321.4530     
     18     (1,21,9)             -1321.4554     
 -----------------------------------------------




 HEAD WILL BE SAVED ON UNIT 1016 AT END OF TIME STEP    7, STRESS PERIOD   16


  VOLUME BUDGET FOR ENTIRE MODEL AT END OF TIME STEP    7, STRESS PERIOD  16
  ---------------------------------------------------------------------------------------------------

     CUMULATIVE VOLUME      L**3       RATES FOR THIS TIME STEP      L**3/T          PACKAGE NAME    
     ------------------                 ------------------------                     ----------------

           IN:                                      IN:
           ---                                      ---
              STO-SS =     4474648.0781                STO-SS =       13145.1836     STORAGE                          
              STO-SY =      190901.1513                STO-SY =         591.6185     STORAGE                          
                 WEL =           0.0000                   WEL =           0.0000     WEL-1                            
                RCHA =    26108295.3765                  RCHA =      171000.0000     RCH-1                            
                 CHD =           0.0000                   CHD =           0.0000     CHD-FROM-IBOUND                  

            TOTAL IN =    30773844.6059              TOTAL IN =      184736.8021

          OUT:                                     OUT:
          ----                                     ----
              STO-SS =    18111371.6887                STO-SS =      135325.1752     STORAGE                          
              STO-SY =      755305.9680                STO-SY =        5626.0242     STORAGE                          
                 WEL =     1665351.7984                   WEL =       20000.0000     WEL-1                            
                RCHA =           0.0000                  RCHA =           0.0000     RCH-1                            
                 CHD =    10241833.5790                   CHD =       23785.6031     CHD-FROM-IBOUND                  

           TOTAL OUT =    30773863.0342             TOTAL OUT =      184736.8025

            IN - OUT =         -18.4283              IN - OUT =      -4.2451E-04

 PERCENT DISCREPANCY =          -0.00     PERCENT DISCREPANCY =          -0.00




         TIME SUMMARY AT END OF TIME STEP    7 IN STRESS PERIOD   16
                    SECONDS     MINUTES      HOURS       DAYS        YEARS
                    -----------------------------------------------------------
   TIME STEP LENGTH 4.84734E+05  8078.9      134.65      5.6103     1.53603E-02
 STRESS PERIOD TIME 2.09672E+06  34945.      582.42      24.268     6.64410E-02
         TOTAL TIME 3.88167E+07 6.46945E+05  10782.      449.27      1.2300    


end timestep


start timestep kper="16" kstp="8" mode="normal"

 UBDSV1 SAVING     FLOW-JA-FACE ON UNIT   1015 AT TIME STEP      8, STRESS PERIOD     16
 UBDSV06 SAVING              WEL IN MODEL MUMODEL          PACKAGE MUMODEL         CONNECTED TO MODEL MUMODEL          PACKAGE WEL-1            ON UNIT   1015 AT TIME STEP      8, STRESS PERIOD     16
 UBDSV06 SAVING             RCHA IN MODEL MUMODEL          PACKAGE MUMODEL         CONNECTED TO MODEL MUMODEL          PACKAGE RCH-1            ON UNIT   1015 AT TIME STEP      8, STRESS PERIOD     16

 WEL PACKAGE (WEL-1) FLOW RATES   PERIOD     16   STEP        8
 -----------------------------------------------
   NUMBER   CELLID                    RATE      
 -----------------------------------------------
     1      (1,5,5)              -20000.000     
     2      (1,11,5)              0.0000000     
     3      (1,5,5)               0.0000000     
 -----------------------------------------------




 CHD PACKAGE (CHD-FROM-IBOUND) FLOW RATES   PERIOD     16   STEP        8
 -----------------------------------------------
   NUMBER   CELLID                    RATE      
 -----------------------------------------------
     1      (1,1,1)              -1331.3098     
     2      (1,1,2)              -1331.3081     
     3      (1,1,3)              -1331.3008     
     4      (1,1,4)              -1331.2269     
     5      (1,1,5)              -1330.7840     
     6      (1,1,6)              -1331.2288     
     7      (1,1,7)              -1331.3040     
     8      (1,1,8)              -1331.3117     
     9      (1,1,9)              -1331.3131     
     10     (1,21,1)             -1331.3116     
     11     (1,21,2)             -1331.3106     
     12     (1,21,3)             -1331.3096     
     13     (1,21,4)             -1331.3088     
     14     (1,21,5)             -1331.3082     
     15     (1,21,6)             -1331.3081     
     16     (1,21,7)             -1331.3089     
     17     (1,21,8)             -1331.3111     
     18     (1,21,9)             -1331.3135     
 -----------------------------------------------




 HEAD WILL BE SAVED ON UNIT 1016 AT END OF TIME STEP    8, STRESS PERIOD   16


  VOLUME BUDGET FOR ENTIRE MODEL AT END OF TIME STEP    8, STRESS PERIOD  16
  ---------------------------------------------------------------------------------------------------

     CUMULATIVE VOLUME      L**3       RATES FOR THIS TIME STEP      L**3/T          PACKAGE NAME    
     ------------------                 ------------------------                     ----------------

           IN:                                      IN:
           ---                                      ---
              STO-SS =     4561627.6167                STO-SS =       12919.5247     STORAGE                          
              STO-SY =      194824.4049                STO-SY =         582.7413     STORAGE                          
                 WEL =           0.0000                   WEL =           0.0000     WEL-1                            
                RCHA =    27259537.5000                  RCHA =      171000.0000     RCH-1                            
                 CHD =           0.0000                   CHD =           0.0000     CHD-FROM-IBOUND                  

            TOTAL IN =    32015989.5215              TOTAL IN =      184502.2661

          OUT:                                     OUT:
          ----                                     ----
              STO-SS =    19019793.7422                STO-SS =      134932.6679     STORAGE                          
              STO-SY =      793052.7138                STO-SY =        5606.7211     STORAGE                          
                 WEL =     1800000.0000                   WEL =       20000.0000     WEL-1                            
                RCHA =           0.0000                  RCHA =           0.0000     RCH-1                            
                 CHD =    10403161.4984                   CHD =       23962.8777     CHD-FROM-IBOUND                  

           TOTAL OUT =    32016007.9544             TOTAL OUT =      184502.2668

            IN - OUT =         -18.4329              IN - OUT =      -6.8918E-04

 PERCENT DISCREPANCY =          -0.00     PERCENT DISCREPANCY =          -0.00




         TIME SUMMARY AT END OF TIME STEP    8 IN STRESS PERIOD   16
                    SECONDS     MINUTES      HOURS       DAYS        YEARS
                    -----------------------------------------------------------
   TIME STEP LENGTH 5.81680E+05  9694.7      161.58      6.7324     1.84323E-02
 STRESS PERIOD TIME 2.67840E+06  44640.      744.00      31.000     8.48734E-02
         TOTAL TIME 3.93984E+07 6.56640E+05  10944.      456.00      1.2485    


end timestep


start timestep kper="17" kstp="1" mode="normal"


 OUTPUT CONTROL FOR STRESS PERIOD 17 IS REPEATED USING SETTINGS FROM A PREVIOUS STRESS PERIOD.


 STRESS PERIOD 17 IS TRANSIENT


 REUSING WELS FROM LAST STRESS PERIOD

                 RECHARGE =  0.3000000E-02

 REUSING CHDS FROM LAST STRESS PERIOD
 UBDSV1 SAVING     FLOW-JA-FACE ON UNIT   1015 AT TIME STEP      1, STRESS PERIOD     17
 UBDSV06 SAVING              WEL IN MODEL MUMODEL          PACKAGE MUMODEL         CONNECTED TO MODEL MUMODEL          PACKAGE WEL-1            ON UNIT   1015 AT TIME STEP      1, STRESS PERIOD     17
 UBDSV06 SAVING             RCHA IN MODEL MUMODEL          PACKAGE MUMODEL         CONNECTED TO MODEL MUMODEL          PACKAGE RCH-1            ON UNIT   1015 AT TIME STEP      1, STRESS PERIOD     17

 WEL PACKAGE (WEL-1) FLOW RATES   PERIOD     17   STEP        1
 -----------------------------------------------
   NUMBER   CELLID                    RATE      
 -----------------------------------------------
     1      (1,5,5)              -20000.000     
     2      (1,11,5)              0.0000000     
     3      (1,5,5)               0.0000000     
 -----------------------------------------------




 CHD PACKAGE (CHD-FROM-IBOUND) FLOW RATES   PERIOD     17   STEP        1
 -----------------------------------------------
   NUMBER   CELLID                    RATE      
 -----------------------------------------------
     1      (1,1,1)              -1333.1012     
     2      (1,1,2)              -1333.0994     
     3      (1,1,3)              -1333.0915     
     4      (1,1,4)              -1333.0117     
     5      (1,1,5)              -1332.5411     
     6      (1,1,6)              -1333.0136     
     7      (1,1,7)              -1333.0947     
     8      (1,1,8)              -1333.1030     
     9      (1,1,9)              -1333.1044     
     10     (1,21,1)             -1333.1029     
     11     (1,21,2)             -1333.1020     
     12     (1,21,3)             -1333.1010     
     13     (1,21,4)             -1333.1001     
     14     (1,21,5)             -1333.0995     
     15     (1,21,6)             -1333.0994     
     16     (1,21,7)             -1333.1003     
     17     (1,21,8)             -1333.1025     
     18     (1,21,9)             -1333.1048     
 -----------------------------------------------




 HEAD WILL BE SAVED ON UNIT 1016 AT END OF TIME STEP    1, STRESS PERIOD   17


  VOLUME BUDGET FOR ENTIRE MODEL AT END OF TIME STEP    1, STRESS PERIOD  17
  ---------------------------------------------------------------------------------------------------

     CUMULATIVE VOLUME      L**3       RATES FOR THIS TIME STEP      L**3/T          PACKAGE NAME    
     ------------------                 ------------------------                     ----------------

           IN:                                      IN:
           ---                                      ---
              STO-SS =     4587184.9108                STO-SS =       14055.7321     STORAGE                          
              STO-SY =      195975.1397                STO-SY =         632.8691     STORAGE                          
                 WEL =           0.0000                   WEL =           0.0000     WEL-1                            
                RCHA =    27492732.2527                  RCHA =      128250.0000     RCH-1                            
                 CHD =           0.0000                   CHD =           0.0000     CHD-FROM-IBOUND                  

            TOTAL IN =    32275892.3032              TOTAL IN =      142938.6012

          OUT:                                     OUT:
          ----                                     ----
              STO-SS =    19192532.1531                STO-SS =       95000.8563     STORAGE                          
              STO-SY =      800221.6063                STO-SY =        3942.6722     STORAGE                          
                 WEL =     1836365.6534                   WEL =       20000.0000     WEL-1                            
                RCHA =           0.0000                  RCHA =           0.0000     RCH-1                            
                 CHD =    10446791.3238                   CHD =       23995.0730     CHD-FROM-IBOUND                  

           TOTAL OUT =    32275910.7367             TOTAL OUT =      142938.6015

            IN - OUT =         -18.4334              IN - OUT =      -2.9562E-04

 PERCENT DISCREPANCY =          -0.00     PERCENT DISCREPANCY =          -0.00




         TIME SUMMARY AT END OF TIME STEP    1 IN STRESS PERIOD   17
                    SECONDS     MINUTES      HOURS       DAYS        YEARS
                    -----------------------------------------------------------
   TIME STEP LENGTH 1.57100E+05  2618.3      43.639      1.8183     4.97819E-03
 STRESS PERIOD TIME 1.57100E+05  2618.3      43.639      1.8183     4.97819E-03
         TOTAL TIME 3.95555E+07 6.59258E+05  10988.      457.82      1.2534    


end timestep


start timestep kper="17" kstp="2" mode="normal"

 UBDSV1 SAVING     FLOW-JA-FACE ON UNIT   1015 AT TIME STEP      2, STRESS PERIOD     17
 UBDSV06 SAVING              WEL IN MODEL MUMODEL          PACKAGE MUMODEL         CONNECTED TO MODEL MUMODEL          PACKAGE WEL-1            ON UNIT   1015 AT TIME STEP      2, STRESS PERIOD     17
 UBDSV06 SAVING             RCHA IN MODEL MUMODEL          PACKAGE MUMODEL         CONNECTED TO MODEL MUMODEL          PACKAGE RCH-1            ON UNIT   1015 AT TIME STEP      2, STRESS PERIOD     17

 WEL PACKAGE (WEL-1) FLOW RATES   PERIOD     17   STEP        2
 -----------------------------------------------
   NUMBER   CELLID                    RATE      
 -----------------------------------------------
     1      (1,5,5)              -20000.000     
     2      (1,11,5)              0.0000000     
     3      (1,5,5)               0.0000000     
 -----------------------------------------------




 CHD PACKAGE (CHD-FROM-IBOUND) FLOW RATES   PERIOD     17   STEP        2
 -----------------------------------------------
   NUMBER   CELLID                    RATE      
 -----------------------------------------------
     1      (1,1,1)              -1335.2433     
     2      (1,1,2)              -1335.2415     
     3      (1,1,3)              -1335.2328     
     4      (1,1,4)              -1335.1454     
     5      (1,1,5)              -1334.6400     
     6      (1,1,6)              -1335.1473     
     7      (1,1,7)              -1335.2360     
     8      (1,1,8)              -1335.2450     
     9      (1,1,9)              -1335.2465     
     10     (1,21,1)             -1335.2450     
     11     (1,21,2)             -1335.2441     
     12     (1,21,3)             -1335.2431     
     13     (1,21,4)             -1335.2423     
     14     (1,21,5)             -1335.2416     
     15     (1,21,6)             -1335.2415     
     16     (1,21,7)             -1335.2424     
     17     (1,21,8)             -1335.2446     
     18     (1,21,9)             -1335.2469     
 -----------------------------------------------




 HEAD WILL BE SAVED ON UNIT 1016 AT END OF TIME STEP    2, STRESS PERIOD   17


  VOLUME BUDGET FOR ENTIRE MODEL AT END OF TIME STEP    2, STRESS PERIOD  17
  ---------------------------------------------------------------------------------------------------

     CUMULATIVE VOLUME      L**3       RATES FOR THIS TIME STEP      L**3/T          PACKAGE NAME    
     ------------------                 ------------------------                     ----------------

           IN:                                      IN:
           ---                                      ---
              STO-SS =     4617692.4373                STO-SS =       13981.8407     STORAGE                          
              STO-SY =      197349.6308                STO-SY =         629.9402     STORAGE                          
                 WEL =           0.0000                   WEL =           0.0000     WEL-1                            
                RCHA =    27772565.9560                  RCHA =      128250.0000     RCH-1                            
                 CHD =           0.0000                   CHD =           0.0000     CHD-FROM-IBOUND                  

            TOTAL IN =    32587608.0241              TOTAL IN =      142861.7809

          OUT:                                     OUT:
          ----                                     ----
              STO-SS =    19399577.8167                STO-SS =       94890.6656     STORAGE                          
              STO-SY =      808813.0931                STO-SY =        3937.5464     STORAGE                          
                 WEL =     1880004.4376                   WEL =       20000.0000     WEL-1                            
                RCHA =           0.0000                  RCHA =           0.0000     RCH-1                            
                 CHD =    10499231.1112                   CHD =       24033.5694     CHD-FROM-IBOUND                  

           TOTAL OUT =    32587626.4586             TOTAL OUT =      142861.7814

            IN - OUT =         -18.4345              IN - OUT =      -5.0477E-04

 PERCENT DISCREPANCY =          -0.00     PERCENT DISCREPANCY =          -0.00




         TIME SUMMARY AT END OF TIME STEP    2 IN STRESS PERIOD   17
                    SECONDS     MINUTES      HOURS       DAYS        YEARS
                    -----------------------------------------------------------
   TIME STEP LENGTH 1.88520E+05  3142.0      52.367      2.1819     5.97382E-03
 STRESS PERIOD TIME 3.45619E+05  5760.3      96.005      4.0002     1.09520E-02
         TOTAL TIME 3.97440E+07 6.62400E+05  11040.      460.00      1.2594    


end timestep


start timestep kper="17" kstp="3" mode="normal"

 UBDSV1 SAVING     FLOW-JA-FACE ON UNIT   1015 AT TIME STEP      3, STRESS PERIOD     17
 UBDSV06 SAVING              WEL IN MODEL MUMODEL          PACKAGE MUMODEL         CONNECTED TO MODEL MUMODEL          PACKAGE WEL-1            ON UNIT   1015 AT TIME STEP      3, STRESS PERIOD     17
 UBDSV06 SAVING             RCHA IN MODEL MUMODEL          PACKAGE MUMODEL         CONNECTED TO MODEL MUMODEL          PACKAGE RCH-1            ON UNIT   1015 AT TIME STEP      3, STRESS PERIOD     17

 WEL PACKAGE (WEL-1) FLOW RATES   PERIOD     17   STEP        3
 -----------------------------------------------
   NUMBER   CELLID                    RATE      
 -----------------------------------------------
     1      (1,5,5)              -20000.000     
     2      (1,11,5)              0.0000000     
     3      (1,5,5)               0.0000000     
 -----------------------------------------------




 CHD PACKAGE (CHD-FROM-IBOUND) FLOW RATES   PERIOD     17   STEP        3
 -----------------------------------------------
   NUMBER   CELLID                    RATE      
 -----------------------------------------------
     1      (1,1,1)              -1337.8032     
     2      (1,1,2)              -1337.8013     
     3      (1,1,3)              -1337.7916     
     4      (1,1,4)              -1337.6944     
     5      (1,1,5)              -1337.1448     
     6      (1,1,6)              -1337.6962     
     7      (1,1,7)              -1337.7947     
     8      (1,1,8)              -1337.8049     
     9      (1,1,9)              -1337.8064     
     10     (1,21,1)             -1337.8049     
     11     (1,21,2)             -1337.8040     
     12     (1,21,3)             -1337.8030     
     13     (1,21,4)             -1337.8022     
     14     (1,21,5)             -1337.8016     
     15     (1,21,6)             -1337.8015     
     16     (1,21,7)             -1337.8024     
     17     (1,21,8)             -1337.8045     
     18     (1,21,9)             -1337.8069     
 -----------------------------------------------




 HEAD WILL BE SAVED ON UNIT 1016 AT END OF TIME STEP    3, STRESS PERIOD   17


  VOLUME BUDGET FOR ENTIRE MODEL AT END OF TIME STEP    3, STRESS PERIOD  17
  ---------------------------------------------------------------------------------------------------

     CUMULATIVE VOLUME      L**3       RATES FOR THIS TIME STEP      L**3/T          PACKAGE NAME    
     ------------------                 ------------------------                     ----------------

           IN:                                      IN:
           ---                                      ---
              STO-SS =     4654067.9773                STO-SS =       13892.6648     STORAGE                          
              STO-SY =      198989.7097                STO-SY =         626.3843     STORAGE                          
                 WEL =           0.0000                   WEL =           0.0000     WEL-1                            
                RCHA =    28108366.3999                  RCHA =      128250.0000     RCH-1                            
                 CHD =           0.0000                   CHD =           0.0000     CHD-FROM-IBOUND                  

            TOTAL IN =    32961424.0869              TOTAL IN =      142769.0491

          OUT:                                     OUT:
          ----                                     ----
              STO-SS =    19647685.5075                STO-SS =       94758.0979     STORAGE                          
              STO-SY =      819106.7412                STO-SY =        3931.3836     STORAGE                          
                 WEL =     1932370.9785                   WEL =       20000.0000     WEL-1                            
                RCHA =           0.0000                  RCHA =           0.0000     RCH-1                            
                 CHD =    10562279.2965                   CHD =       24079.5684     CHD-FROM-IBOUND                  

           TOTAL OUT =    32961442.5237             TOTAL OUT =      142769.0499

            IN - OUT =         -18.4368              IN - OUT =      -8.5767E-04

 PERCENT DISCREPANCY =          -0.00     PERCENT DISCREPANCY =          -0.00




         TIME SUMMARY AT END OF TIME STEP    3 IN STRESS PERIOD   17
                    SECONDS     MINUTES      HOURS       DAYS        YEARS
                    -----------------------------------------------------------
   TIME STEP LENGTH 2.26223E+05  3770.4      62.840      2.6183     7.16859E-03
 STRESS PERIOD TIME 5.71843E+05  9530.7      158.85      6.6185     1.81206E-02
         TOTAL TIME 3.99702E+07 6.66171E+05  11103.      462.62      1.2666    


end timestep


start timestep kper="17" kstp="4" mode="normal"

 UBDSV1 SAVING     FLOW-JA-FACE ON UNIT   1015 AT TIME STEP      4, STRESS PERIOD     17
 UBDSV06 SAVING              WEL IN MODEL MUMODEL          PACKAGE MUMODEL         CONNECTED TO MODEL MUMODEL          PACKAGE WEL-1            ON UNIT   1015 AT TIME STEP      4, STRESS PERIOD     17
 UBDSV06 SAVING             RCHA IN MODEL MUMODEL          PACKAGE MUMODEL         CONNECTED TO MODEL MUMODEL          PACKAGE RCH-1            ON UNIT   1015 AT TIME STEP      4, STRESS PERIOD     17

 WEL PACKAGE (WEL-1) FLOW RATES   PERIOD     17   STEP        4
 -----------------------------------------------
   NUMBER   CELLID                    RATE      
 -----------------------------------------------
     1      (1,5,5)              -20000.000     
     2      (1,11,5)              0.0000000     
     3      (1,5,5)               0.0000000     
 -----------------------------------------------




 CHD PACKAGE (CHD-FROM-IBOUND) FLOW RATES   PERIOD     17   STEP        4
 -----------------------------------------------
   NUMBER   CELLID                    RATE      
 -----------------------------------------------
     1      (1,1,1)              -1340.8600     
     2      (1,1,2)              -1340.8580     
     3      (1,1,3)              -1340.8468     
     4      (1,1,4)              -1340.7366     
     5      (1,1,5)              -1340.1305     
     6      (1,1,6)              -1340.7385     
     7      (1,1,7)              -1340.8499     
     8      (1,1,8)              -1340.8615     
     9      (1,1,9)              -1340.8632     
     10     (1,21,1)             -1340.8616     
     11     (1,21,2)             -1340.8607     
     12     (1,21,3)             -1340.8598     
     13     (1,21,4)             -1340.8590     
     14     (1,21,5)             -1340.8583     
     15     (1,21,6)             -1340.8583     
     16     (1,21,7)             -1340.8592     
     17     (1,21,8)             -1340.8613     
     18     (1,21,9)             -1340.8636     
 -----------------------------------------------




 HEAD WILL BE SAVED ON UNIT 1016 AT END OF TIME STEP    4, STRESS PERIOD   17


  VOLUME BUDGET FOR ENTIRE MODEL AT END OF TIME STEP    4, STRESS PERIOD  17
  ---------------------------------------------------------------------------------------------------

     CUMULATIVE VOLUME      L**3       RATES FOR THIS TIME STEP      L**3/T          PACKAGE NAME    
     ------------------                 ------------------------                     ----------------

           IN:                                      IN:
           ---                                      ---
              STO-SS =     4697380.4190                STO-SS =       13785.0241     STORAGE                          
              STO-SY =      200944.2288                STO-SY =         622.0636     STORAGE                          
                 WEL =           0.0000                   WEL =           0.0000     WEL-1                            
                RCHA =    28511326.9326                  RCHA =      128250.0000     RCH-1                            
                 CHD =           0.0000                   CHD =           0.0000     CHD-FROM-IBOUND                  

            TOTAL IN =    33409651.5803              TOTAL IN =      142657.0876

          OUT:                                     OUT:
          ----                                     ----
              STO-SS =    19944913.6763                STO-SS =       94598.6258     STORAGE                          
              STO-SY =      831435.8420                STO-SY =        3923.9753     STORAGE                          
                 WEL =     1995210.8277                   WEL =       20000.0000     WEL-1                            
                RCHA =           0.0000                  RCHA =           0.0000     RCH-1                            
                 CHD =    10638109.6714                   CHD =       24134.4866     CHD-FROM-IBOUND                  

           TOTAL OUT =    33409670.0174             TOTAL OUT =      142657.0877

            IN - OUT =         -18.4370              IN - OUT =      -7.7536E-05

 PERCENT DISCREPANCY =          -0.00     PERCENT DISCREPANCY =          -0.00




         TIME SUMMARY AT END OF TIME STEP    4 IN STRESS PERIOD   17
                    SECONDS     MINUTES      HOURS       DAYS        YEARS
                    -----------------------------------------------------------
   TIME STEP LENGTH 2.71468E+05  4524.5      75.408      3.1420     8.60231E-03
 STRESS PERIOD TIME 8.43311E+05  14055.      234.25      9.7605     2.67229E-02
         TOTAL TIME 4.02417E+07 6.70695E+05  11178.      465.76      1.2752    


end timestep


start timestep kper="17" kstp="5" mode="normal"

 UBDSV1 SAVING     FLOW-JA-FACE ON UNIT   1015 AT TIME STEP      5, STRESS PERIOD     17
 UBDSV06 SAVING              WEL IN MODEL MUMODEL          PACKAGE MUMODEL         CONNECTED TO MODEL MUMODEL          PACKAGE WEL-1            ON UNIT   1015 AT TIME STEP      5, STRESS PERIOD     17
 UBDSV06 SAVING             RCHA IN MODEL MUMODEL          PACKAGE MUMODEL         CONNECTED TO MODEL MUMODEL          PACKAGE RCH-1            ON UNIT   1015 AT TIME STEP      5, STRESS PERIOD     17

 WEL PACKAGE (WEL-1) FLOW RATES   PERIOD     17   STEP        5
 -----------------------------------------------
   NUMBER   CELLID                    RATE      
 -----------------------------------------------
     1      (1,5,5)              -20000.000     
     2      (1,11,5)              0.0000000     
     3      (1,5,5)               0.0000000     
 -----------------------------------------------




 CHD PACKAGE (CHD-FROM-IBOUND) FLOW RATES   PERIOD     17   STEP        5
 -----------------------------------------------
   NUMBER   CELLID                    RATE      
 -----------------------------------------------
     1      (1,1,1)              -1344.5065     
     2      (1,1,2)              -1344.5044     
     3      (1,1,3)              -1344.4912     
     4      (1,1,4)              -1344.3637     
     5      (1,1,5)              -1343.6845     
     6      (1,1,6)              -1344.3655     
     7      (1,1,7)              -1344.4943     
     8      (1,1,8)              -1344.5079     
     9      (1,1,9)              -1344.5097     
     10     (1,21,1)             -1344.5082     
     11     (1,21,2)             -1344.5073     
     12     (1,21,3)             -1344.5063     
     13     (1,21,4)             -1344.5055     
     14     (1,21,5)             -1344.5049     
     15     (1,21,6)             -1344.5049     
     16     (1,21,7)             -1344.5058     
     17     (1,21,8)             -1344.5079     
     18     (1,21,9)             -1344.5102     
 -----------------------------------------------




 HEAD WILL BE SAVED ON UNIT 1016 AT END OF TIME STEP    5, STRESS PERIOD   17


  VOLUME BUDGET FOR ENTIRE MODEL AT END OF TIME STEP    5, STRESS PERIOD  17
  ---------------------------------------------------------------------------------------------------

     CUMULATIVE VOLUME      L**3       RATES FOR THIS TIME STEP      L**3/T          PACKAGE NAME    
     ------------------                 ------------------------                     ----------------

           IN:                                      IN:
           ---                                      ---
              STO-SS =     4748865.5264                STO-SS =       13655.1111     STORAGE                          
              STO-SY =      203269.8464                STO-SY =         616.8107     STORAGE                          
                 WEL =           0.0000                   WEL =           0.0000     WEL-1                            
                RCHA =    28994879.5718                  RCHA =      128250.0000     RCH-1                            
                 CHD =           0.0000                   CHD =           0.0000     CHD-FROM-IBOUND                  

            TOTAL IN =    33947014.9446              TOTAL IN =      142521.9219

          OUT:                                     OUT:
          ----                                     ----
              STO-SS =    20300864.4456                STO-SS =       94406.8597     STORAGE                          
              STO-SY =      846197.1997                STO-SY =        3915.0735     STORAGE                          
                 WEL =     2070618.6467                   WEL =       20000.0000     WEL-1                            
                RCHA =           0.0000                  RCHA =           0.0000     RCH-1                            
                 CHD =    10729353.0901                   CHD =       24199.9888     CHD-FROM-IBOUND                  

           TOTAL OUT =    33947033.3821             TOTAL OUT =      142521.9220

            IN - OUT =         -18.4375              IN - OUT =      -1.2812E-04

 PERCENT DISCREPANCY =          -0.00     PERCENT DISCREPANCY =          -0.00




         TIME SUMMARY AT END OF TIME STEP    5 IN STRESS PERIOD   17
                    SECONDS     MINUTES      HOURS       DAYS        YEARS
                    -----------------------------------------------------------
   TIME STEP LENGTH 3.25762E+05  5429.4      90.489      3.7704     1.03228E-02
 STRESS PERIOD TIME 1.16907E+06  19485.      324.74      13.531     3.70457E-02
         TOTAL TIME 4.05675E+07 6.76125E+05  11269.      469.53      1.2855    


end timestep


start timestep kper="17" kstp="6" mode="normal"

 UBDSV1 SAVING     FLOW-JA-FACE ON UNIT   1015 AT TIME STEP      6, STRESS PERIOD     17
 UBDSV06 SAVING              WEL IN MODEL MUMODEL          PACKAGE MUMODEL         CONNECTED TO MODEL MUMODEL          PACKAGE WEL-1            ON UNIT   1015 AT TIME STEP      6, STRESS PERIOD     17
 UBDSV06 SAVING             RCHA IN MODEL MUMODEL          PACKAGE MUMODEL         CONNECTED TO MODEL MUMODEL          PACKAGE RCH-1            ON UNIT   1015 AT TIME STEP      6, STRESS PERIOD     17

 WEL PACKAGE (WEL-1) FLOW RATES   PERIOD     17   STEP        6
 -----------------------------------------------
   NUMBER   CELLID                    RATE      
 -----------------------------------------------
     1      (1,5,5)              -20000.000     
     2      (1,11,5)              0.0000000     
     3      (1,5,5)               0.0000000     
 -----------------------------------------------




 CHD PACKAGE (CHD-FROM-IBOUND) FLOW RATES   PERIOD     17   STEP        6
 -----------------------------------------------
   NUMBER   CELLID                    RATE      
 -----------------------------------------------
     1      (1,1,1)              -1348.8519     
     2      (1,1,2)              -1348.8495     
     3      (1,1,3)              -1348.8335     
     4      (1,1,4)              -1348.6824     
     5      (1,1,5)              -1347.9079     
     6      (1,1,6)              -1348.6842     
     7      (1,1,7)              -1348.8366     
     8      (1,1,8)              -1348.8530     
     9      (1,1,9)              -1348.8550     
     10     (1,21,1)             -1348.8535     
     11     (1,21,2)             -1348.8527     
     12     (1,21,3)             -1348.8517     
     13     (1,21,4)             -1348.8509     
     14     (1,21,5)             -1348.8503     
     15     (1,21,6)             -1348.8503     
     16     (1,21,7)             -1348.8512     
     17     (1,21,8)             -1348.8533     
     18     (1,21,9)             -1348.8555     
 -----------------------------------------------




 HEAD WILL BE SAVED ON UNIT 1016 AT END OF TIME STEP    6, STRESS PERIOD   17


  VOLUME BUDGET FOR ENTIRE MODEL AT END OF TIME STEP    6, STRESS PERIOD  17
  ---------------------------------------------------------------------------------------------------

     CUMULATIVE VOLUME      L**3       RATES FOR THIS TIME STEP      L**3/T          PACKAGE NAME    
     ------------------                 ------------------------                     ----------------

           IN:                                      IN:
           ---                                      ---
              STO-SS =     4809938.6287                STO-SS =       13498.4018     STORAGE                          
              STO-SY =      206031.6921                STO-SY =         610.4242     STORAGE                          
                 WEL =           0.0000                   WEL =           0.0000     WEL-1                            
                RCHA =    29575142.7389                  RCHA =      128250.0000     RCH-1                            
                 CHD =           0.0000                   CHD =           0.0000     CHD-FROM-IBOUND                  

            TOTAL IN =    34591113.0596              TOTAL IN =      142358.8260

          OUT:                                     OUT:
          ----                                     ----
              STO-SS =    20726962.7420                STO-SS =       94176.4179     STORAGE                          
              STO-SY =      863862.4683                STO-SY =        3904.3848     STORAGE                          
                 WEL =     2161108.0295                   WEL =       20000.0000     WEL-1                            
                RCHA =           0.0000                  RCHA =           0.0000     RCH-1                            
                 CHD =    10839198.2583                   CHD =       24278.0235     CHD-FROM-IBOUND                  

           TOTAL OUT =    34591131.4981             TOTAL OUT =      142358.8262

            IN - OUT =         -18.4385              IN - OUT =      -2.1647E-04

 PERCENT DISCREPANCY =          -0.00     PERCENT DISCREPANCY =          -0.00




         TIME SUMMARY AT END OF TIME STEP    6 IN STRESS PERIOD   17
                    SECONDS     MINUTES      HOURS       DAYS        YEARS
                    -----------------------------------------------------------
   TIME STEP LENGTH 3.90914E+05  6515.2      108.59      4.5245     1.23873E-02
 STRESS PERIOD TIME 1.55999E+06  26000.      433.33      18.055     4.94330E-02
         TOTAL TIME 4.09584E+07 6.82640E+05  11377.      474.06      1.2979    


end timestep


start timestep kper="17" kstp="7" mode="normal"

 UBDSV1 SAVING     FLOW-JA-FACE ON UNIT   1015 AT TIME STEP      7, STRESS PERIOD     17
 UBDSV06 SAVING              WEL IN MODEL MUMODEL          PACKAGE MUMODEL         CONNECTED TO MODEL MUMODEL          PACKAGE WEL-1            ON UNIT   1015 AT TIME STEP      7, STRESS PERIOD     17
 UBDSV06 SAVING             RCHA IN MODEL MUMODEL          PACKAGE MUMODEL         CONNECTED TO MODEL MUMODEL          PACKAGE RCH-1            ON UNIT   1015 AT TIME STEP      7, STRESS PERIOD     17

 WEL PACKAGE (WEL-1) FLOW RATES   PERIOD     17   STEP        7
 -----------------------------------------------
   NUMBER   CELLID                    RATE      
 -----------------------------------------------
     1      (1,5,5)              -20000.000     
     2      (1,11,5)              0.0000000     
     3      (1,5,5)               0.0000000     
 -----------------------------------------------




 CHD PACKAGE (CHD-FROM-IBOUND) FLOW RATES   PERIOD     17   STEP        7
 -----------------------------------------------
   NUMBER   CELLID                    RATE      
 -----------------------------------------------
     1      (1,1,1)              -1354.0232     
     2      (1,1,2)              -1354.0205     
     3      (1,1,3)              -1354.0004     
     4      (1,1,4)              -1353.8165     
     5      (1,1,5)              -1352.9163     
     6      (1,1,6)              -1353.8183     
     7      (1,1,7)              -1354.0034     
     8      (1,1,8)              -1354.0239     
     9      (1,1,9)              -1354.0263     
     10     (1,21,1)             -1354.0248     
     11     (1,21,2)             -1354.0240     
     12     (1,21,3)             -1354.0230     
     13     (1,21,4)             -1354.0222     
     14     (1,21,5)             -1354.0217     
     15     (1,21,6)             -1354.0216     
     16     (1,21,7)             -1354.0225     
     17     (1,21,8)             -1354.0246     
     18     (1,21,9)             -1354.0268     
 -----------------------------------------------




 HEAD WILL BE SAVED ON UNIT 1016 AT END OF TIME STEP    7, STRESS PERIOD   17


  VOLUME BUDGET FOR ENTIRE MODEL AT END OF TIME STEP    7, STRESS PERIOD  17
  ---------------------------------------------------------------------------------------------------

     CUMULATIVE VOLUME      L**3       RATES FOR THIS TIME STEP      L**3/T          PACKAGE NAME    
     ------------------                 ------------------------                     ----------------

           IN:                                      IN:
           ---                                      ---
              STO-SS =     4882201.1930                STO-SS =       13309.5843     STORAGE                          
              STO-SY =      209303.7739                STO-SY =         602.6641     STORAGE                          
                 WEL =           0.0000                   WEL =           0.0000     WEL-1                            
                RCHA =    30271458.5394                  RCHA =      128250.0000     RCH-1                            
                 CHD =           0.0000                   CHD =           0.0000     CHD-FROM-IBOUND                  

            TOTAL IN =    35362963.5064              TOTAL IN =      142162.2484

          OUT:                                     OUT:
          ----                                     ----
              STO-SS =    21236778.9640                STO-SS =       93899.8231     STORAGE                          
              STO-SY =      884991.1909                STO-SY =        3891.5657     STORAGE                          
                 WEL =     2269695.2888                   WEL =       20000.0000     WEL-1                            
                RCHA =           0.0000                  RCHA =           0.0000     RCH-1                            
                 CHD =    10971516.5030                   CHD =       24370.8600     CHD-FROM-IBOUND                  

           TOTAL OUT =    35362981.9468             TOTAL OUT =      142162.2488

            IN - OUT =         -18.4404              IN - OUT =      -3.5556E-04

 PERCENT DISCREPANCY =          -0.00     PERCENT DISCREPANCY =          -0.00




         TIME SUMMARY AT END OF TIME STEP    7 IN STRESS PERIOD   17
                    SECONDS     MINUTES      HOURS       DAYS        YEARS
                    -----------------------------------------------------------
   TIME STEP LENGTH 4.69097E+05  7818.3      130.30      5.4294     1.48648E-02
 STRESS PERIOD TIME 2.02908E+06  33818.      563.63      23.485     6.42978E-02
         TOTAL TIME 4.14275E+07 6.90458E+05  11508.      479.48      1.3128    


end timestep


start timestep kper="17" kstp="8" mode="normal"

 UBDSV1 SAVING     FLOW-JA-FACE ON UNIT   1015 AT TIME STEP      8, STRESS PERIOD     17
 UBDSV06 SAVING              WEL IN MODEL MUMODEL          PACKAGE MUMODEL         CONNECTED TO MODEL MUMODEL          PACKAGE WEL-1            ON UNIT   1015 AT TIME STEP      8, STRESS PERIOD     17
 UBDSV06 SAVING             RCHA IN MODEL MUMODEL          PACKAGE MUMODEL         CONNECTED TO MODEL MUMODEL          PACKAGE RCH-1            ON UNIT   1015 AT TIME STEP      8, STRESS PERIOD     17

 WEL PACKAGE (WEL-1) FLOW RATES   PERIOD     17   STEP        8
 -----------------------------------------------
   NUMBER   CELLID                    RATE      
 -----------------------------------------------
     1      (1,5,5)              -20000.000     
     2      (1,11,5)              0.0000000     
     3      (1,5,5)               0.0000000     
 -----------------------------------------------




 CHD PACKAGE (CHD-FROM-IBOUND) FLOW RATES   PERIOD     17   STEP        8
 -----------------------------------------------
   NUMBER   CELLID                    RATE      
 -----------------------------------------------
     1      (1,1,1)              -1360.1679     
     2      (1,1,2)              -1360.1647     
     3      (1,1,3)              -1360.1385     
     4      (1,1,4)              -1359.9084     
     5      (1,1,5)              -1358.8407     
     6      (1,1,6)              -1359.9102     
     7      (1,1,7)              -1360.1415     
     8      (1,1,8)              -1360.1681     
     9      (1,1,9)              -1360.1710     
     10     (1,21,1)             -1360.1696     
     11     (1,21,2)             -1360.1687     
     12     (1,21,3)             -1360.1678     
     13     (1,21,4)             -1360.1670     
     14     (1,21,5)             -1360.1665     
     15     (1,21,6)             -1360.1664     
     16     (1,21,7)             -1360.1674     
     17     (1,21,8)             -1360.1694     
     18     (1,21,9)             -1360.1716     
 -----------------------------------------------




 HEAD WILL BE SAVED ON UNIT 1016 AT END OF TIME STEP    8, STRESS PERIOD   17


  VOLUME BUDGET FOR ENTIRE MODEL AT END OF TIME STEP    8, STRESS PERIOD  17
  ---------------------------------------------------------------------------------------------------

     CUMULATIVE VOLUME      L**3       RATES FOR THIS TIME STEP      L**3/T          PACKAGE NAME    
     ------------------                 ------------------------                     ----------------

           IN:                                      IN:
           ---                                      ---
              STO-SS =     4967436.9228                STO-SS =       13082.5247     STORAGE                          
              STO-SY =      213168.9312                STO-SY =         593.2490     STORAGE                          
                 WEL =           0.0000                   WEL =           0.0000     WEL-1                            
                RCHA =    31107037.5000                  RCHA =      128250.0000     RCH-1                            
                 CHD =           0.0000                   CHD =           0.0000     CHD-FROM-IBOUND                  

            TOTAL IN =    36287643.3541              TOTAL IN =      141925.7737

          OUT:                                     OUT:
          ----                                     ----
              STO-SS =    21846399.3268                STO-SS =       93568.4300     STORAGE                          
              STO-SY =      910245.6692                STO-SY =        3876.2188     STORAGE                          
                 WEL =     2400000.0000                   WEL =       20000.0000     WEL-1                            
                RCHA =           0.0000                  RCHA =           0.0000     RCH-1                            
                 CHD =    11131016.8023                   CHD =       24481.1255     CHD-FROM-IBOUND                  

           TOTAL OUT =    36287661.7983             TOTAL OUT =      141925.7743

            IN - OUT =         -18.4442              IN - OUT =      -5.7978E-04

 PERCENT DISCREPANCY =          -0.00     PERCENT DISCREPANCY =          -0.00




         TIME SUMMARY AT END OF TIME STEP    8 IN STRESS PERIOD   17
                    SECONDS     MINUTES      HOURS       DAYS        YEARS
                    -----------------------------------------------------------
   TIME STEP LENGTH 5.62916E+05  9381.9      156.37      6.5152     1.78377E-02
 STRESS PERIOD TIME 2.59200E+06  43200.      720.00      30.000     8.21355E-02
         TOTAL TIME 4.19904E+07 6.99840E+05  11664.      486.00      1.3306    


end timestep


start timestep kper="18" kstp="1" mode="normal"


 OUTPUT CONTROL FOR STRESS PERIOD 18 IS REPEATED USING SETTINGS FROM A PREVIOUS STRESS PERIOD.


 STRESS PERIOD 18 IS TRANSIENT


 REUSING WELS FROM LAST STRESS PERIOD

                 RECHARGE =  0.1000000E-02

 REUSING CHDS FROM LAST STRESS PERIOD
 UBDSV1 SAVING     FLOW-JA-FACE ON UNIT   1015 AT TIME STEP      1, STRESS PERIOD     18
 UBDSV06 SAVING              WEL IN MODEL MUMODEL          PACKAGE MUMODEL         CONNECTED TO MODEL MUMODEL          PACKAGE WEL-1            ON UNIT   1015 AT TIME STEP      1, STRESS PERIOD     18
 UBDSV06 SAVING             RCHA IN MODEL MUMODEL          PACKAGE MUMODEL         CONNECTED TO MODEL MUMODEL          PACKAGE RCH-1            ON UNIT   1015 AT TIME STEP      1, STRESS PERIOD     18

 WEL PACKAGE (WEL-1) FLOW RATES   PERIOD     18   STEP        1
 -----------------------------------------------
   NUMBER   CELLID                    RATE      
 -----------------------------------------------
     1      (1,5,5)              -20000.000     
     2      (1,11,5)              0.0000000     
     3      (1,5,5)               0.0000000     
 -----------------------------------------------




 CHD PACKAGE (CHD-FROM-IBOUND) FLOW RATES   PERIOD     18   STEP        1
 -----------------------------------------------
   NUMBER   CELLID                    RATE      
 -----------------------------------------------
     1      (1,1,1)              -1360.1519     
     2      (1,1,2)              -1360.1485     
     3      (1,1,3)              -1360.1204     
     4      (1,1,4)              -1359.8764     
     5      (1,1,5)              -1358.7589     
     6      (1,1,6)              -1359.8782     
     7      (1,1,7)              -1360.1235     
     8      (1,1,8)              -1360.1519     
     9      (1,1,9)              -1360.1549     
     10     (1,21,1)             -1360.1535     
     11     (1,21,2)             -1360.1527     
     12     (1,21,3)             -1360.1518     
     13     (1,21,4)             -1360.1510     
     14     (1,21,5)             -1360.1504     
     15     (1,21,6)             -1360.1504     
     16     (1,21,7)             -1360.1513     
     17     (1,21,8)             -1360.1534     
     18     (1,21,9)             -1360.1556     
 -----------------------------------------------




 HEAD WILL BE SAVED ON UNIT 1016 AT END OF TIME STEP    1, STRESS PERIOD   18


  VOLUME BUDGET FOR ENTIRE MODEL AT END OF TIME STEP    1, STRESS PERIOD  18
  ---------------------------------------------------------------------------------------------------

     CUMULATIVE VOLUME      L**3       RATES FOR THIS TIME STEP      L**3/T          PACKAGE NAME    
     ------------------                 ------------------------                     ----------------

           IN:                                      IN:
           ---                                      ---
              STO-SS =     4999763.3283                STO-SS =       17205.0356     STORAGE                          
              STO-SY =      214618.2846                STO-SY =         771.3872     STORAGE                          
                 WEL =           0.0000                   WEL =           0.0000     WEL-1                            
                RCHA =    31187360.1370                  RCHA =       42750.0000     RCH-1                            
                 CHD =           0.0000                   CHD =           0.0000     CHD-FROM-IBOUND                  

            TOTAL IN =    36401741.7500              TOTAL IN =       60726.4229

          OUT:                                     OUT:
          ----                                     ----
              STO-SS =    21875729.8347                STO-SS =       15610.5335     STORAGE                          
              STO-SY =      911439.0569                STO-SY =         635.1550     STORAGE                          
                 WEL =     2437577.8419                   WEL =       20000.0000     WEL-1                            
                RCHA =           0.0000                  RCHA =           0.0000     RCH-1                            
                 CHD =    11177013.4610                   CHD =       24480.7346     CHD-FROM-IBOUND                  

           TOTAL OUT =    36401760.1945             TOTAL OUT =       60726.4231

            IN - OUT =         -18.4445              IN - OUT =      -1.9227E-04

 PERCENT DISCREPANCY =          -0.00     PERCENT DISCREPANCY =          -0.00




         TIME SUMMARY AT END OF TIME STEP    1 IN STRESS PERIOD   18
                    SECONDS     MINUTES      HOURS       DAYS        YEARS
                    -----------------------------------------------------------
   TIME STEP LENGTH 1.62336E+05  2705.6      45.093      1.8789     5.14413E-03
 STRESS PERIOD TIME 1.62336E+05  2705.6      45.093      1.8789     5.14413E-03
         TOTAL TIME 4.21527E+07 7.02546E+05  11709.      487.88      1.3357    


end timestep


start timestep kper="18" kstp="2" mode="normal"

 UBDSV1 SAVING     FLOW-JA-FACE ON UNIT   1015 AT TIME STEP      2, STRESS PERIOD     18
 UBDSV06 SAVING              WEL IN MODEL MUMODEL          PACKAGE MUMODEL         CONNECTED TO MODEL MUMODEL          PACKAGE WEL-1            ON UNIT   1015 AT TIME STEP      2, STRESS PERIOD     18
 UBDSV06 SAVING             RCHA IN MODEL MUMODEL          PACKAGE MUMODEL         CONNECTED TO MODEL MUMODEL          PACKAGE RCH-1            ON UNIT   1015 AT TIME STEP      2, STRESS PERIOD     18

 WEL PACKAGE (WEL-1) FLOW RATES   PERIOD     18   STEP        2
 -----------------------------------------------
   NUMBER   CELLID                    RATE      
 -----------------------------------------------
     1      (1,5,5)              -20000.000     
     2      (1,11,5)              0.0000000     
     3      (1,5,5)               0.0000000     
 -----------------------------------------------




 CHD PACKAGE (CHD-FROM-IBOUND) FLOW RATES   PERIOD     18   STEP        2
 -----------------------------------------------
   NUMBER   CELLID                    RATE      
 -----------------------------------------------
     1      (1,1,1)              -1360.1345     
     2      (1,1,2)              -1360.1309     
     3      (1,1,3)              -1360.1004     
     4      (1,1,4)              -1359.8388     
     5      (1,1,5)              -1358.6596     
     6      (1,1,6)              -1359.8406     
     7      (1,1,7)              -1360.1034     
     8      (1,1,8)              -1360.1342     
     9      (1,1,9)              -1360.1375     
     10     (1,21,1)             -1360.1361     
     11     (1,21,2)             -1360.1353     
     12     (1,21,3)             -1360.1344     
     13     (1,21,4)             -1360.1336     
     14     (1,21,5)             -1360.1331     
     15     (1,21,6)             -1360.1330     
     16     (1,21,7)             -1360.1339     
     17     (1,21,8)             -1360.1360     
     18     (1,21,9)             -1360.1382     
 -----------------------------------------------




 HEAD WILL BE SAVED ON UNIT 1016 AT END OF TIME STEP    2, STRESS PERIOD   18


  VOLUME BUDGET FOR ENTIRE MODEL AT END OF TIME STEP    2, STRESS PERIOD  18
  ---------------------------------------------------------------------------------------------------

     CUMULATIVE VOLUME      L**3       RATES FOR THIS TIME STEP      L**3/T          PACKAGE NAME    
     ------------------                 ------------------------                     ----------------

           IN:                                      IN:
           ---                                      ---
              STO-SS =     5038490.5402                STO-SS =       17176.4396     STORAGE                          
              STO-SY =      216354.9916                STO-SY =         770.2709     STORAGE                          
                 WEL =           0.0000                   WEL =           0.0000     WEL-1                            
                RCHA =    31283747.3015                  RCHA =       42750.0000     RCH-1                            
                 CHD =           0.0000                   CHD =           0.0000     CHD-FROM-IBOUND                  

            TOTAL IN =    36538592.8333              TOTAL IN =       60696.7105

          OUT:                                     OUT:
          ----                                     ----
              STO-SS =    21910863.1664                STO-SS =       15582.4682     STORAGE                          
              STO-SY =      912868.4032                STO-SY =         633.9491     STORAGE                          
                 WEL =     2482671.2522                   WEL =       20000.0000     WEL-1                            
                RCHA =           0.0000                  RCHA =           0.0000     RCH-1                            
                 CHD =    11232208.4569                   CHD =       24480.2935     CHD-FROM-IBOUND                  

           TOTAL OUT =    36538611.2786             TOTAL OUT =       60696.7108

            IN - OUT =         -18.4453              IN - OUT =      -3.3281E-04

 PERCENT DISCREPANCY =          -0.00     PERCENT DISCREPANCY =          -0.00




         TIME SUMMARY AT END OF TIME STEP    2 IN STRESS PERIOD   18
                    SECONDS     MINUTES      HOURS       DAYS        YEARS
                    -----------------------------------------------------------
   TIME STEP LENGTH 1.94804E+05  3246.7      54.112      2.2547     6.17295E-03
 STRESS PERIOD TIME 3.57140E+05  5952.3      99.206      4.1336     1.13171E-02
         TOTAL TIME 4.23475E+07 7.05792E+05  11763.      490.13      1.3419    


end timestep


start timestep kper="18" kstp="3" mode="normal"

 UBDSV1 SAVING     FLOW-JA-FACE ON UNIT   1015 AT TIME STEP      3, STRESS PERIOD     18
 UBDSV06 SAVING              WEL IN MODEL MUMODEL          PACKAGE MUMODEL         CONNECTED TO MODEL MUMODEL          PACKAGE WEL-1            ON UNIT   1015 AT TIME STEP      3, STRESS PERIOD     18
 UBDSV06 SAVING             RCHA IN MODEL MUMODEL          PACKAGE MUMODEL         CONNECTED TO MODEL MUMODEL          PACKAGE RCH-1            ON UNIT   1015 AT TIME STEP      3, STRESS PERIOD     18

 WEL PACKAGE (WEL-1) FLOW RATES   PERIOD     18   STEP        3
 -----------------------------------------------
   NUMBER   CELLID                    RATE      
 -----------------------------------------------
     1      (1,5,5)              -20000.000     
     2      (1,11,5)              0.0000000     
     3      (1,5,5)               0.0000000     
 -----------------------------------------------




 CHD PACKAGE (CHD-FROM-IBOUND) FLOW RATES   PERIOD     18   STEP        3
 -----------------------------------------------
   NUMBER   CELLID                    RATE      
 -----------------------------------------------
     1      (1,1,1)              -1360.1163     
     2      (1,1,2)              -1360.1124     
     3      (1,1,3)              -1360.0788     
     4      (1,1,4)              -1359.7948     
     5      (1,1,5)              -1358.5386     
     6      (1,1,6)              -1359.7965     
     7      (1,1,7)              -1360.0818     
     8      (1,1,8)              -1360.1157     
     9      (1,1,9)              -1360.1193     
     10     (1,21,1)             -1360.1179     
     11     (1,21,2)             -1360.1171     
     12     (1,21,3)             -1360.1162     
     13     (1,21,4)             -1360.1154     
     14     (1,21,5)             -1360.1149     
     15     (1,21,6)             -1360.1149     
     16     (1,21,7)             -1360.1158     
     17     (1,21,8)             -1360.1179     
     18     (1,21,9)             -1360.1200     
 -----------------------------------------------




 HEAD WILL BE SAVED ON UNIT 1016 AT END OF TIME STEP    3, STRESS PERIOD   18


  VOLUME BUDGET FOR ENTIRE MODEL AT END OF TIME STEP    3, STRESS PERIOD  18
  ---------------------------------------------------------------------------------------------------

     CUMULATIVE VOLUME      L**3       RATES FOR THIS TIME STEP      L**3/T          PACKAGE NAME    
     ------------------                 ------------------------                     ----------------

           IN:                                      IN:
           ---                                      ---
              STO-SS =     5084869.2442                STO-SS =       17141.7153     STORAGE                          
              STO-SY =      218435.3391                STO-SY =         768.9030     STORAGE                          
                 WEL =           0.0000                   WEL =           0.0000     WEL-1                            
                RCHA =    31399411.8989                  RCHA =       42750.0000     RCH-1                            
                 CHD =           0.0000                   CHD =           0.0000     CHD-FROM-IBOUND                  

            TOTAL IN =    36702716.4821              TOTAL IN =       60660.6183

          OUT:                                     OUT:
          ----                                     ----
              STO-SS =    21952930.8026                STO-SS =       15548.3310     STORAGE                          
              STO-SY =      914579.6521                STO-SY =         632.4830     STORAGE                          
                 WEL =     2536783.3445                   WEL =       20000.0000     WEL-1                            
                RCHA =           0.0000                  RCHA =           0.0000     RCH-1                            
                 CHD =    11298441.1284                   CHD =       24479.8043     CHD-FROM-IBOUND                  

           TOTAL OUT =    36702734.9276             TOTAL OUT =       60660.6183

            IN - OUT =         -18.4454              IN - OUT =      -5.2707E-05

 PERCENT DISCREPANCY =          -0.00     PERCENT DISCREPANCY =          -0.00




         TIME SUMMARY AT END OF TIME STEP    3 IN STRESS PERIOD   18
                    SECONDS     MINUTES      HOURS       DAYS        YEARS
                    -----------------------------------------------------------
   TIME STEP LENGTH 2.33764E+05  3896.1      64.935      2.7056     7.40754E-03
 STRESS PERIOD TIME 5.90904E+05  9848.4      164.14      6.8392     1.87246E-02
         TOTAL TIME 4.25813E+07 7.09688E+05  11828.      492.84      1.3493    


end timestep


start timestep kper="18" kstp="4" mode="normal"

 UBDSV1 SAVING     FLOW-JA-FACE ON UNIT   1015 AT TIME STEP      4, STRESS PERIOD     18
 UBDSV06 SAVING              WEL IN MODEL MUMODEL          PACKAGE MUMODEL         CONNECTED TO MODEL MUMODEL          PACKAGE WEL-1            ON UNIT   1015 AT TIME STEP      4, STRESS PERIOD     18
 UBDSV06 SAVING             RCHA IN MODEL MUMODEL          PACKAGE MUMODEL         CONNECTED TO MODEL MUMODEL          PACKAGE RCH-1            ON UNIT   1015 AT TIME STEP      4, STRESS PERIOD     18

 WEL PACKAGE (WEL-1) FLOW RATES   PERIOD     18   STEP        4
 -----------------------------------------------
   NUMBER   CELLID                    RATE      
 -----------------------------------------------
     1      (1,5,5)              -20000.000     
     2      (1,11,5)              0.0000000     
     3      (1,5,5)               0.0000000     
 -----------------------------------------------




 CHD PACKAGE (CHD-FROM-IBOUND) FLOW RATES   PERIOD     18   STEP        4
 -----------------------------------------------
   NUMBER   CELLID                    RATE      
 -----------------------------------------------
     1      (1,1,1)              -1360.0982     
     2      (1,1,2)              -1360.0940     
     3      (1,1,3)              -1360.0563     
     4      (1,1,4)              -1359.7434     
     5      (1,1,5)              -1358.3905     
     6      (1,1,6)              -1359.7452     
     7      (1,1,7)              -1360.0593     
     8      (1,1,8)              -1360.0973     
     9      (1,1,9)              -1360.1012     
     10     (1,21,1)             -1360.0999     
     11     (1,21,2)             -1360.0991     
     12     (1,21,3)             -1360.0982     
     13     (1,21,4)             -1360.0974     
     14     (1,21,5)             -1360.0969     
     15     (1,21,6)             -1360.0969     
     16     (1,21,7)             -1360.0978     
     17     (1,21,8)             -1360.0999     
     18     (1,21,9)             -1360.1020     
 -----------------------------------------------




 HEAD WILL BE SAVED ON UNIT 1016 AT END OF TIME STEP    4, STRESS PERIOD   18


  VOLUME BUDGET FOR ENTIRE MODEL AT END OF TIME STEP    4, STRESS PERIOD  18
  ---------------------------------------------------------------------------------------------------

     CUMULATIVE VOLUME      L**3       RATES FOR THIS TIME STEP      L**3/T          PACKAGE NAME    
     ------------------                 ------------------------                     ----------------

           IN:                                      IN:
           ---                                      ---
              STO-SS =     5140386.5310                STO-SS =       17099.4703     STORAGE                          
              STO-SY =      220926.2994                STO-SY =         767.2223     STORAGE                          
                 WEL =           0.0000                   WEL =           0.0000     WEL-1                            
                RCHA =    31538209.4157                  RCHA =       42750.0000     RCH-1                            
                 CHD =           0.0000                   CHD =           0.0000     CHD-FROM-IBOUND                  

            TOTAL IN =    36899522.2461              TOTAL IN =       60616.6926

          OUT:                                     OUT:
          ----                                     ----
              STO-SS =    22003276.8736                STO-SS =       15506.7222     STORAGE                          
              STO-SY =      916627.3525                STO-SY =         630.6971     STORAGE                          
                 WEL =     2601717.8553                   WEL =       20000.0000     WEL-1                            
                RCHA =           0.0000                  RCHA =           0.0000     RCH-1                            
                 CHD =    11377918.6104                   CHD =       24479.2734     CHD-FROM-IBOUND                  

           TOTAL OUT =    36899540.6918             TOTAL OUT =       60616.6927

            IN - OUT =         -18.4457              IN - OUT =      -9.0456E-05

 PERCENT DISCREPANCY =          -0.00     PERCENT DISCREPANCY =          -0.00




         TIME SUMMARY AT END OF TIME STEP    4 IN STRESS PERIOD   18
                    SECONDS     MINUTES      HOURS       DAYS        YEARS
                    -----------------------------------------------------------
   TIME STEP LENGTH 2.80517E+05  4675.3      77.921      3.2467     8.88905E-03
 STRESS PERIOD TIME 8.71421E+05  14524.      242.06      10.086     2.76137E-02
         TOTAL TIME 4.28618E+07 7.14364E+05  11906.      496.09      1.3582    


end timestep


start timestep kper="18" kstp="5" mode="normal"

 UBDSV1 SAVING     FLOW-JA-FACE ON UNIT   1015 AT TIME STEP      5, STRESS PERIOD     18
 UBDSV06 SAVING              WEL IN MODEL MUMODEL          PACKAGE MUMODEL         CONNECTED TO MODEL MUMODEL          PACKAGE WEL-1            ON UNIT   1015 AT TIME STEP      5, STRESS PERIOD     18
 UBDSV06 SAVING             RCHA IN MODEL MUMODEL          PACKAGE MUMODEL         CONNECTED TO MODEL MUMODEL          PACKAGE RCH-1            ON UNIT   1015 AT TIME STEP      5, STRESS PERIOD     18

 WEL PACKAGE (WEL-1) FLOW RATES   PERIOD     18   STEP        5
 -----------------------------------------------
   NUMBER   CELLID                    RATE      
 -----------------------------------------------
     1      (1,5,5)              -20000.000     
     2      (1,11,5)              0.0000000     
     3      (1,5,5)               0.0000000     
 -----------------------------------------------




 CHD PACKAGE (CHD-FROM-IBOUND) FLOW RATES   PERIOD     18   STEP        5
 -----------------------------------------------
   NUMBER   CELLID                    RATE      
 -----------------------------------------------
     1      (1,1,1)              -1360.0819     
     2      (1,1,2)              -1360.0772     
     3      (1,1,3)              -1360.0341     
     4      (1,1,4)              -1359.6835     
     5      (1,1,5)              -1358.2084     
     6      (1,1,6)              -1359.6853     
     7      (1,1,7)              -1360.0370     
     8      (1,1,8)              -1360.0805     
     9      (1,1,9)              -1360.0849     
     10     (1,21,1)             -1360.0836     
     11     (1,21,2)             -1360.0828     
     12     (1,21,3)             -1360.0819     
     13     (1,21,4)             -1360.0812     
     14     (1,21,5)             -1360.0806     
     15     (1,21,6)             -1360.0806     
     16     (1,21,7)             -1360.0816     
     17     (1,21,8)             -1360.0836     
     18     (1,21,9)             -1360.0858     
 -----------------------------------------------




 HEAD WILL BE SAVED ON UNIT 1016 AT END OF TIME STEP    5, STRESS PERIOD   18


  VOLUME BUDGET FOR ENTIRE MODEL AT END OF TIME STEP    5, STRESS PERIOD  18
  ---------------------------------------------------------------------------------------------------

     CUMULATIVE VOLUME      L**3       RATES FOR THIS TIME STEP      L**3/T          PACKAGE NAME    
     ------------------                 ------------------------                     ----------------

           IN:                                      IN:
           ---                                      ---
              STO-SS =     5206806.6428                STO-SS =       17047.9742     STORAGE                          
              STO-SY =      223907.3845                STO-SY =         765.1517     STORAGE                          
                 WEL =           0.0000                   WEL =           0.0000     WEL-1                            
                RCHA =    31704766.4358                  RCHA =       42750.0000     RCH-1                            
                 CHD =           0.0000                   CHD =           0.0000     CHD-FROM-IBOUND                  

            TOTAL IN =    37135480.4631              TOTAL IN =       60563.1259

          OUT:                                     OUT:
          ----                                     ----
              STO-SS =    22063494.1306                STO-SS =       15455.8945     STORAGE                          
              STO-SY =      919076.0991                STO-SY =         628.5170     STORAGE                          
                 WEL =     2679639.2682                   WEL =       20000.0000     WEL-1                            
                RCHA =           0.0000                  RCHA =           0.0000     RCH-1                            
                 CHD =    11473289.4115                   CHD =       24478.7145     CHD-FROM-IBOUND                  

           TOTAL OUT =    37135498.9095             TOTAL OUT =       60563.1260

            IN - OUT =         -18.4463              IN - OUT =      -1.4748E-04

 PERCENT DISCREPANCY =          -0.00     PERCENT DISCREPANCY =          -0.00




         TIME SUMMARY AT END OF TIME STEP    5 IN STRESS PERIOD   18
                    SECONDS     MINUTES      HOURS       DAYS        YEARS
                    -----------------------------------------------------------
   TIME STEP LENGTH 3.36621E+05  5610.3      93.506      3.8961     1.06669E-02
 STRESS PERIOD TIME 1.20804E+06  20134.      335.57      13.982     3.82805E-02
         TOTAL TIME 4.31984E+07 7.19974E+05  12000.      499.98      1.3689    


end timestep


start timestep kper="18" kstp="6" mode="normal"

 UBDSV1 SAVING     FLOW-JA-FACE ON UNIT   1015 AT TIME STEP      6, STRESS PERIOD     18
 UBDSV06 SAVING              WEL IN MODEL MUMODEL          PACKAGE MUMODEL         CONNECTED TO MODEL MUMODEL          PACKAGE WEL-1            ON UNIT   1015 AT TIME STEP      6, STRESS PERIOD     18
 UBDSV06 SAVING             RCHA IN MODEL MUMODEL          PACKAGE MUMODEL         CONNECTED TO MODEL MUMODEL          PACKAGE RCH-1            ON UNIT   1015 AT TIME STEP      6, STRESS PERIOD     18

 WEL PACKAGE (WEL-1) FLOW RATES   PERIOD     18   STEP        6
 -----------------------------------------------
   NUMBER   CELLID                    RATE      
 -----------------------------------------------
     1      (1,5,5)              -20000.000     
     2      (1,11,5)              0.0000000     
     3      (1,5,5)               0.0000000     
 -----------------------------------------------




 CHD PACKAGE (CHD-FROM-IBOUND) FLOW RATES   PERIOD     18   STEP        6
 -----------------------------------------------
   NUMBER   CELLID                    RATE      
 -----------------------------------------------
     1      (1,1,1)              -1360.0699     
     2      (1,1,2)              -1360.0644     
     3      (1,1,3)              -1360.0139     
     4      (1,1,4)              -1359.6138     
     5      (1,1,5)              -1357.9828     
     6      (1,1,6)              -1359.6155     
     7      (1,1,7)              -1360.0168     
     8      (1,1,8)              -1360.0677     
     9      (1,1,9)              -1360.0729     
     10     (1,21,1)             -1360.0716     
     11     (1,21,2)             -1360.0709     
     12     (1,21,3)             -1360.0700     
     13     (1,21,4)             -1360.0692     
     14     (1,21,5)             -1360.0687     
     15     (1,21,6)             -1360.0687     
     16     (1,21,7)             -1360.0697     
     17     (1,21,8)             -1360.0717     
     18     (1,21,9)             -1360.0738     
 -----------------------------------------------




 HEAD WILL BE SAVED ON UNIT 1016 AT END OF TIME STEP    6, STRESS PERIOD   18


  VOLUME BUDGET FOR ENTIRE MODEL AT END OF TIME STEP    6, STRESS PERIOD  18
  ---------------------------------------------------------------------------------------------------

     CUMULATIVE VOLUME      L**3       RATES FOR THIS TIME STEP      L**3/T          PACKAGE NAME    
     ------------------                 ------------------------                     ----------------

           IN:                                      IN:
           ---                                      ---
              STO-SS =     5286216.6849                STO-SS =       16985.0706     STORAGE                          
              STO-SY =      227472.7275                STO-SY =         762.5938     STORAGE                          
                 WEL =           0.0000                   WEL =           0.0000     WEL-1                            
                RCHA =    31904634.8601                  RCHA =       42750.0000     RCH-1                            
                 CHD =           0.0000                   CHD =           0.0000     CHD-FROM-IBOUND                  

            TOTAL IN =    37418324.2725              TOTAL IN =       60497.6644

          OUT:                                     OUT:
          ----                                     ----
              STO-SS =    22135463.8885                STO-SS =       15393.6629     STORAGE                          
              STO-SY =      922002.1252                STO-SY =         625.8498     STORAGE                          
                 WEL =     2773144.9638                   WEL =       20000.0000     WEL-1                            
                RCHA =           0.0000                  RCHA =           0.0000     RCH-1                            
                 CHD =    11587731.7426                   CHD =       24478.1519     CHD-FROM-IBOUND                  

           TOTAL OUT =    37418342.7200             TOTAL OUT =       60497.6646

            IN - OUT =         -18.4475              IN - OUT =      -2.4617E-04

 PERCENT DISCREPANCY =          -0.00     PERCENT DISCREPANCY =          -0.00




         TIME SUMMARY AT END OF TIME STEP    6 IN STRESS PERIOD   18
                    SECONDS     MINUTES      HOURS       DAYS        YEARS
                    -----------------------------------------------------------
   TIME STEP LENGTH 4.03945E+05  6732.4      112.21      4.6753     1.28002E-02
 STRESS PERIOD TIME 1.61199E+06  26866.      447.77      18.657     5.10808E-02
         TOTAL TIME 4.36024E+07 7.26706E+05  12112.      504.66      1.3817    


end timestep


start timestep kper="18" kstp="7" mode="normal"

 UBDSV1 SAVING     FLOW-JA-FACE ON UNIT   1015 AT TIME STEP      7, STRESS PERIOD     18
 UBDSV06 SAVING              WEL IN MODEL MUMODEL          PACKAGE MUMODEL         CONNECTED TO MODEL MUMODEL          PACKAGE WEL-1            ON UNIT   1015 AT TIME STEP      7, STRESS PERIOD     18
 UBDSV06 SAVING             RCHA IN MODEL MUMODEL          PACKAGE MUMODEL         CONNECTED TO MODEL MUMODEL          PACKAGE RCH-1            ON UNIT   1015 AT TIME STEP      7, STRESS PERIOD     18

 WEL PACKAGE (WEL-1) FLOW RATES   PERIOD     18   STEP        7
 -----------------------------------------------
   NUMBER   CELLID                    RATE      
 -----------------------------------------------
     1      (1,5,5)              -20000.000     
     2      (1,11,5)              0.0000000     
     3      (1,5,5)               0.0000000     
 -----------------------------------------------




 CHD PACKAGE (CHD-FROM-IBOUND) FLOW RATES   PERIOD     18   STEP        7
 -----------------------------------------------
   NUMBER   CELLID                    RATE      
 -----------------------------------------------
     1      (1,1,1)              -1360.0660     
     2      (1,1,2)              -1360.0595     
     3      (1,1,3)              -1359.9986     
     4      (1,1,4)              -1359.5321     
     5      (1,1,5)              -1357.7013     
     6      (1,1,6)              -1359.5338     
     7      (1,1,7)              -1360.0015     
     8      (1,1,8)              -1360.0627     
     9      (1,1,9)              -1360.0690     
     10     (1,21,1)             -1360.0678     
     11     (1,21,2)             -1360.0671     
     12     (1,21,3)             -1360.0662     
     13     (1,21,4)             -1360.0655     
     14     (1,21,5)             -1360.0650     
     15     (1,21,6)             -1360.0650     
     16     (1,21,7)             -1360.0659     
     17     (1,21,8)             -1360.0679     
     18     (1,21,9)             -1360.0700     
 -----------------------------------------------




 HEAD WILL BE SAVED ON UNIT 1016 AT END OF TIME STEP    7, STRESS PERIOD   18


  VOLUME BUDGET FOR ENTIRE MODEL AT END OF TIME STEP    7, STRESS PERIOD  18
  ---------------------------------------------------------------------------------------------------

     CUMULATIVE VOLUME      L**3       RATES FOR THIS TIME STEP      L**3/T          PACKAGE NAME    
     ------------------                 ------------------------                     ----------------

           IN:                                      IN:
           ---                                      ---
              STO-SS =     5381076.7535                STO-SS =       16908.0732     STORAGE                          
              STO-SY =      231733.3669                STO-SY =         759.4260     STORAGE                          
                 WEL =           0.0000                   WEL =           0.0000     WEL-1                            
                RCHA =    32144476.9691                  RCHA =       42750.0000     RCH-1                            
                 CHD =           0.0000                   CHD =           0.0000     CHD-FROM-IBOUND                  

            TOTAL IN =    37757287.0896              TOTAL IN =       60417.4992

          OUT:                                     OUT:
          ----                                     ----
              STO-SS =    22221399.1489                STO-SS =       15317.2952     STORAGE                          
              STO-SY =      925495.0093                STO-SY =         622.5796     STORAGE                          
                 WEL =     2885351.7984                   WEL =       20000.0000     WEL-1                            
                RCHA =           0.0000                  RCHA =           0.0000     RCH-1                            
                 CHD =    11725059.5827                   CHD =       24477.6248     CHD-FROM-IBOUND                  

           TOTAL OUT =    37757305.5393             TOTAL OUT =       60417.4996

            IN - OUT =         -18.4497              IN - OUT =      -4.0649E-04

 PERCENT DISCREPANCY =          -0.00     PERCENT DISCREPANCY =          -0.00




         TIME SUMMARY AT END OF TIME STEP    7 IN STRESS PERIOD   18
                    SECONDS     MINUTES      HOURS       DAYS        YEARS
                    -----------------------------------------------------------
   TIME STEP LENGTH 4.84734E+05  8078.9      134.65      5.6103     1.53603E-02
 STRESS PERIOD TIME 2.09672E+06  34945.      582.42      24.268     6.64410E-02
         TOTAL TIME 4.40871E+07 7.34785E+05  12246.      510.27      1.3970    


end timestep


start timestep kper="18" kstp="8" mode="normal"

 UBDSV1 SAVING     FLOW-JA-FACE ON UNIT   1015 AT TIME STEP      8, STRESS PERIOD     18
 UBDSV06 SAVING              WEL IN MODEL MUMODEL          PACKAGE MUMODEL         CONNECTED TO MODEL MUMODEL          PACKAGE WEL-1            ON UNIT   1015 AT TIME STEP      8, STRESS PERIOD     18
 UBDSV06 SAVING             RCHA IN MODEL MUMODEL          PACKAGE MUMODEL         CONNECTED TO MODEL MUMODEL          PACKAGE RCH-1            ON UNIT   1015 AT TIME STEP      8, STRESS PERIOD     18

 WEL PACKAGE (WEL-1) FLOW RATES   PERIOD     18   STEP        8
 -----------------------------------------------
   NUMBER   CELLID                    RATE      
 -----------------------------------------------
     1      (1,5,5)              -20000.000     
     2      (1,11,5)              0.0000000     
     3      (1,5,5)               0.0000000     
 -----------------------------------------------




 CHD PACKAGE (CHD-FROM-IBOUND) FLOW RATES   PERIOD     18   STEP        8
 -----------------------------------------------
   NUMBER   CELLID                    RATE      
 -----------------------------------------------
     1      (1,1,1)              -1360.0760     
     2      (1,1,2)              -1360.0679     
     3      (1,1,3)              -1359.9923     
     4      (1,1,4)              -1359.4358     
     5      (1,1,5)              -1357.3461     
     6      (1,1,6)              -1359.4375     
     7      (1,1,7)              -1359.9952     
     8      (1,1,8)              -1360.0711     
     9      (1,1,9)              -1360.0789     
     10     (1,21,1)             -1360.0779     
     11     (1,21,2)             -1360.0772     
     12     (1,21,3)             -1360.0763     
     13     (1,21,4)             -1360.0756     
     14     (1,21,5)             -1360.0751     
     15     (1,21,6)             -1360.0751     
     16     (1,21,7)             -1360.0761     
     17     (1,21,8)             -1360.0781     
     18     (1,21,9)             -1360.0802     
 -----------------------------------------------




 HEAD WILL BE SAVED ON UNIT 1016 AT END OF TIME STEP    8, STRESS PERIOD   18


  VOLUME BUDGET FOR ENTIRE MODEL AT END OF TIME STEP    8, STRESS PERIOD  18
  ---------------------------------------------------------------------------------------------------

     CUMULATIVE VOLUME      L**3       RATES FOR THIS TIME STEP      L**3/T          PACKAGE NAME    
     ------------------                 ------------------------                     ----------------

           IN:                                      IN:
           ---                                      ---
              STO-SS =     5494337.3780                STO-SS =       16823.1916     STORAGE                          
              STO-SY =      236822.6850                STO-SY =         755.9430     STORAGE                          
                 WEL =           0.0000                   WEL =           0.0000     WEL-1                            
                RCHA =    32432287.5000                  RCHA =       42750.0000     RCH-1                            
                 CHD =           0.0000                   CHD =           0.0000     CHD-FROM-IBOUND                  

            TOTAL IN =    38163447.5630              TOTAL IN =       60329.1345

          OUT:                                     OUT:
          ----                                     ----
              STO-SS =    22323953.4994                STO-SS =       15232.9328     STORAGE                          
              STO-SY =      929662.4369                STO-SY =         619.0098     STORAGE                          
                 WEL =     3020000.0000                   WEL =       20000.0000     WEL-1                            
                RCHA =           0.0000                  RCHA =           0.0000     RCH-1                            
                 CHD =    11889850.0809                   CHD =       24477.1926     CHD-FROM-IBOUND                  

           TOTAL OUT =    38163466.0172             TOTAL OUT =       60329.1352

            IN - OUT =         -18.4542              IN - OUT =      -6.6486E-04

 PERCENT DISCREPANCY =          -0.00     PERCENT DISCREPANCY =          -0.00




         TIME SUMMARY AT END OF TIME STEP    8 IN STRESS PERIOD   18
                    SECONDS     MINUTES      HOURS       DAYS        YEARS
                    -----------------------------------------------------------
   TIME STEP LENGTH 5.81680E+05  9694.7      161.58      6.7324     1.84323E-02
 STRESS PERIOD TIME 2.67840E+06  44640.      744.00      31.000     8.48734E-02
         TOTAL TIME 4.46688E+07 7.44480E+05  12408.      517.00      1.4155    


end timestep


start timestep kper="19" kstp="1" mode="normal"


 OUTPUT CONTROL FOR STRESS PERIOD 19 IS REPEATED USING SETTINGS FROM A PREVIOUS STRESS PERIOD.


 STRESS PERIOD 19 IS TRANSIENT


 REUSING WELS FROM LAST STRESS PERIOD

                 RECHARGE =  0.5000000E-03

 REUSING CHDS FROM LAST STRESS PERIOD
 UBDSV1 SAVING     FLOW-JA-FACE ON UNIT   1015 AT TIME STEP      1, STRESS PERIOD     19
 UBDSV06 SAVING              WEL IN MODEL MUMODEL          PACKAGE MUMODEL         CONNECTED TO MODEL MUMODEL          PACKAGE WEL-1            ON UNIT   1015 AT TIME STEP      1, STRESS PERIOD     19
 UBDSV06 SAVING             RCHA IN MODEL MUMODEL          PACKAGE MUMODEL         CONNECTED TO MODEL MUMODEL          PACKAGE RCH-1            ON UNIT   1015 AT TIME STEP      1, STRESS PERIOD     19

 WEL PACKAGE (WEL-1) FLOW RATES   PERIOD     19   STEP        1
 -----------------------------------------------
   NUMBER   CELLID                    RATE      
 -----------------------------------------------
     1      (1,5,5)              -20000.000     
     2      (1,11,5)              0.0000000     
     3      (1,5,5)               0.0000000     
 -----------------------------------------------




 CHD PACKAGE (CHD-FROM-IBOUND) FLOW RATES   PERIOD     19   STEP        1
 -----------------------------------------------
   NUMBER   CELLID                    RATE      
 -----------------------------------------------
     1      (1,1,1)              -1359.6484     
     2      (1,1,2)              -1359.6398     
     3      (1,1,3)              -1359.5601     
     4      (1,1,4)              -1358.9784     
     5      (1,1,5)              -1356.8175     
     6      (1,1,6)              -1358.9801     
     7      (1,1,7)              -1359.5629     
     8      (1,1,8)              -1359.6430     
     9      (1,1,9)              -1359.6512     
     10     (1,21,1)             -1359.6503     
     11     (1,21,2)             -1359.6496     
     12     (1,21,3)             -1359.6487     
     13     (1,21,4)             -1359.6480     
     14     (1,21,5)             -1359.6475     
     15     (1,21,6)             -1359.6475     
     16     (1,21,7)             -1359.6485     
     17     (1,21,8)             -1359.6505     
     18     (1,21,9)             -1359.6525     
 -----------------------------------------------




 HEAD WILL BE SAVED ON UNIT 1016 AT END OF TIME STEP    1, STRESS PERIOD   19


  VOLUME BUDGET FOR ENTIRE MODEL AT END OF TIME STEP    1, STRESS PERIOD  19
  ---------------------------------------------------------------------------------------------------

     CUMULATIVE VOLUME      L**3       RATES FOR THIS TIME STEP      L**3/T          PACKAGE NAME    
     ------------------                 ------------------------                     ----------------

           IN:                                      IN:
           ---                                      ---
              STO-SS =     5534525.9083                STO-SS =       22102.4657     STORAGE                          
              STO-SY =      238626.1642                STO-SY =         991.8585     STORAGE                          
                 WEL =           0.0000                   WEL =           0.0000     WEL-1                            
                RCHA =    32471153.2921                  RCHA =       21375.0000     RCH-1                            
                 CHD =           0.0000                   CHD =           0.0000     CHD-FROM-IBOUND                  

            TOTAL IN =    38244305.3646              TOTAL IN =       44469.3242

          OUT:                                     OUT:
          ----                                     ----
              STO-SS =    22323953.4994                STO-SS =           0.0000     STORAGE                          
              STO-SY =      929662.4369                STO-SY =           0.0000     STORAGE                          
                 WEL =     3056365.6534                   WEL =       20000.0000     WEL-1                            
                RCHA =           0.0000                  RCHA =           0.0000     RCH-1                            
                 CHD =    11934342.2293                   CHD =       24469.3243     CHD-FROM-IBOUND                  

           TOTAL OUT =    38244323.8191             TOTAL OUT =       44469.3243

            IN - OUT =         -18.4545              IN - OUT =      -1.3963E-04

 PERCENT DISCREPANCY =          -0.00     PERCENT DISCREPANCY =          -0.00




         TIME SUMMARY AT END OF TIME STEP    1 IN STRESS PERIOD   19
                    SECONDS     MINUTES      HOURS       DAYS        YEARS
                    -----------------------------------------------------------
   TIME STEP LENGTH 1.57100E+05  2618.3      43.639      1.8183     4.97819E-03
 STRESS PERIOD TIME 1.57100E+05  2618.3      43.639      1.8183     4.97819E-03
         TOTAL TIME 4.48259E+07 7.47098E+05  12452.      518.82      1.4204    


end timestep


start timestep kper="19" kstp="2" mode="normal"

 UBDSV1 SAVING     FLOW-JA-FACE ON UNIT   1015 AT TIME STEP      2, STRESS PERIOD     19
 UBDSV06 SAVING              WEL IN MODEL MUMODEL          PACKAGE MUMODEL         CONNECTED TO MODEL MUMODEL          PACKAGE WEL-1            ON UNIT   1015 AT TIME STEP      2, STRESS PERIOD     19
 UBDSV06 SAVING             RCHA IN MODEL MUMODEL          PACKAGE MUMODEL         CONNECTED TO MODEL MUMODEL          PACKAGE RCH-1            ON UNIT   1015 AT TIME STEP      2, STRESS PERIOD     19

 WEL PACKAGE (WEL-1) FLOW RATES   PERIOD     19   STEP        2
 -----------------------------------------------
   NUMBER   CELLID                    RATE      
 -----------------------------------------------
     1      (1,5,5)              -20000.000     
     2      (1,11,5)              0.0000000     
     3      (1,5,5)               0.0000000     
 -----------------------------------------------




 CHD PACKAGE (CHD-FROM-IBOUND) FLOW RATES   PERIOD     19   STEP        2
 -----------------------------------------------
   NUMBER   CELLID                    RATE      
 -----------------------------------------------
     1      (1,1,1)              -1359.1388     
     2      (1,1,2)              -1359.1296     
     3      (1,1,3)              -1359.0447     
     4      (1,1,4)              -1358.4317     
     5      (1,1,5)              -1356.1833     
     6      (1,1,6)              -1358.4334     
     7      (1,1,7)              -1359.0475     
     8      (1,1,8)              -1359.1328     
     9      (1,1,9)              -1359.1416     
     10     (1,21,1)             -1359.1408     
     11     (1,21,2)             -1359.1400     
     12     (1,21,3)             -1359.1391     
     13     (1,21,4)             -1359.1384     
     14     (1,21,5)             -1359.1380     
     15     (1,21,6)             -1359.1380     
     16     (1,21,7)             -1359.1390     
     17     (1,21,8)             -1359.1410     
     18     (1,21,9)             -1359.1430     
 -----------------------------------------------




 HEAD WILL BE SAVED ON UNIT 1016 AT END OF TIME STEP    2, STRESS PERIOD   19


  VOLUME BUDGET FOR ENTIRE MODEL AT END OF TIME STEP    2, STRESS PERIOD  19
  ---------------------------------------------------------------------------------------------------

     CUMULATIVE VOLUME      L**3       RATES FOR THIS TIME STEP      L**3/T          PACKAGE NAME    
     ------------------                 ------------------------                     ----------------

           IN:                                      IN:
           ---                                      ---
              STO-SS =     5582732.5197                STO-SS =       22093.4714     STORAGE                          
              STO-SY =      240789.4895                STO-SY =         991.4691     STORAGE                          
                 WEL =           0.0000                   WEL =           0.0000     WEL-1                            
                RCHA =    32517792.2427                  RCHA =       21375.0000     RCH-1                            
                 CHD =           0.0000                   CHD =           0.0000     CHD-FROM-IBOUND                  

            TOTAL IN =    38341314.2519              TOTAL IN =       44459.9405

          OUT:                                     OUT:
          ----                                     ----
              STO-SS =    22323953.4994                STO-SS =           0.0000     STORAGE                          
              STO-SY =      929662.4369                STO-SY =           0.0000     STORAGE                          
                 WEL =     3100004.4376                   WEL =       20000.0000     WEL-1                            
                RCHA =           0.0000                  RCHA =           0.0000     RCH-1                            
                 CHD =    11987712.3330                   CHD =       24459.9407     CHD-FROM-IBOUND                  

           TOTAL OUT =    38341332.7069             TOTAL OUT =       44459.9407

            IN - OUT =         -18.4550              IN - OUT =      -2.4041E-04

 PERCENT DISCREPANCY =          -0.00     PERCENT DISCREPANCY =          -0.00




         TIME SUMMARY AT END OF TIME STEP    2 IN STRESS PERIOD   19
                    SECONDS     MINUTES      HOURS       DAYS        YEARS
                    -----------------------------------------------------------
   TIME STEP LENGTH 1.88520E+05  3142.0      52.367      2.1819     5.97382E-03
 STRESS PERIOD TIME 3.45619E+05  5760.3      96.005      4.0002     1.09520E-02
         TOTAL TIME 4.50144E+07 7.50240E+05  12504.      521.00      1.4264    


end timestep


start timestep kper="19" kstp="3" mode="normal"

 UBDSV1 SAVING     FLOW-JA-FACE ON UNIT   1015 AT TIME STEP      3, STRESS PERIOD     19
 UBDSV06 SAVING              WEL IN MODEL MUMODEL          PACKAGE MUMODEL         CONNECTED TO MODEL MUMODEL          PACKAGE WEL-1            ON UNIT   1015 AT TIME STEP      3, STRESS PERIOD     19
 UBDSV06 SAVING             RCHA IN MODEL MUMODEL          PACKAGE MUMODEL         CONNECTED TO MODEL MUMODEL          PACKAGE RCH-1            ON UNIT   1015 AT TIME STEP      3, STRESS PERIOD     19

 WEL PACKAGE (WEL-1) FLOW RATES   PERIOD     19   STEP        3
 -----------------------------------------------
   NUMBER   CELLID                    RATE      
 -----------------------------------------------
     1      (1,5,5)              -20000.000     
     2      (1,11,5)              0.0000000     
     3      (1,5,5)               0.0000000     
 -----------------------------------------------




 CHD PACKAGE (CHD-FROM-IBOUND) FLOW RATES   PERIOD     19   STEP        3
 -----------------------------------------------
   NUMBER   CELLID                    RATE      
 -----------------------------------------------
     1      (1,1,1)              -1358.5324     
     2      (1,1,2)              -1358.5225     
     3      (1,1,3)              -1358.4310     
     4      (1,1,4)              -1357.7788     
     5      (1,1,5)              -1355.4225     
     6      (1,1,6)              -1357.7805     
     7      (1,1,7)              -1358.4338     
     8      (1,1,8)              -1358.5257     
     9      (1,1,9)              -1358.5353     
     10     (1,21,1)             -1358.5345     
     11     (1,21,2)             -1358.5337     
     12     (1,21,3)             -1358.5329     
     13     (1,21,4)             -1358.5322     
     14     (1,21,5)             -1358.5317     
     15     (1,21,6)             -1358.5317     
     16     (1,21,7)             -1358.5327     
     17     (1,21,8)             -1358.5347     
     18     (1,21,9)             -1358.5367     
 -----------------------------------------------




 HEAD WILL BE SAVED ON UNIT 1016 AT END OF TIME STEP    3, STRESS PERIOD   19


  VOLUME BUDGET FOR ENTIRE MODEL AT END OF TIME STEP    3, STRESS PERIOD  19
  ---------------------------------------------------------------------------------------------------

     CUMULATIVE VOLUME      L**3       RATES FOR THIS TIME STEP      L**3/T          PACKAGE NAME    
     ------------------                 ------------------------                     ----------------

           IN:                                      IN:
           ---                                      ---
              STO-SS =     5640552.4142                STO-SS =       22082.7625     STORAGE                          
              STO-SY =      243384.2523                STO-SY =         991.0003     STORAGE                          
                 WEL =           0.0000                   WEL =           0.0000     WEL-1                            
                RCHA =    32573758.9833                  RCHA =       21375.0000     RCH-1                            
                 CHD =           0.0000                   CHD =           0.0000     CHD-FROM-IBOUND                  

            TOTAL IN =    38457695.6498              TOTAL IN =       44448.7628

          OUT:                                     OUT:
          ----                                     ----
              STO-SS =    22323953.4994                STO-SS =           0.0000     STORAGE                          
              STO-SY =      929662.4369                STO-SY =           0.0000     STORAGE                          
                 WEL =     3152370.9785                   WEL =       20000.0000     WEL-1                            
                RCHA =           0.0000                  RCHA =           0.0000     RCH-1                            
                 CHD =    12051727.1910                   CHD =       24448.7632     CHD-FROM-IBOUND                  

           TOTAL OUT =    38457714.1059             TOTAL OUT =       44448.7632

            IN - OUT =         -18.4561              IN - OUT =      -4.1184E-04

 PERCENT DISCREPANCY =          -0.00     PERCENT DISCREPANCY =          -0.00




         TIME SUMMARY AT END OF TIME STEP    3 IN STRESS PERIOD   19
                    SECONDS     MINUTES      HOURS       DAYS        YEARS
                    -----------------------------------------------------------
   TIME STEP LENGTH 2.26223E+05  3770.4      62.840      2.6183     7.16859E-03
 STRESS PERIOD TIME 5.71843E+05  9530.7      158.85      6.6185     1.81206E-02
         TOTAL TIME 4.52406E+07 7.54011E+05  12567.      523.62      1.4336    


end timestep


start timestep kper="19" kstp="4" mode="normal"

 UBDSV1 SAVING     FLOW-JA-FACE ON UNIT   1015 AT TIME STEP      4, STRESS PERIOD     19
 UBDSV06 SAVING              WEL IN MODEL MUMODEL          PACKAGE MUMODEL         CONNECTED TO MODEL MUMODEL          PACKAGE WEL-1            ON UNIT   1015 AT TIME STEP      4, STRESS PERIOD     19
 UBDSV06 SAVING             RCHA IN MODEL MUMODEL          PACKAGE MUMODEL         CONNECTED TO MODEL MUMODEL          PACKAGE RCH-1            ON UNIT   1015 AT TIME STEP      4, STRESS PERIOD     19

 WEL PACKAGE (WEL-1) FLOW RATES   PERIOD     19   STEP        4
 -----------------------------------------------
   NUMBER   CELLID                    RATE      
 -----------------------------------------------
     1      (1,5,5)              -20000.000     
     2      (1,11,5)              0.0000000     
     3      (1,5,5)               0.0000000     
 -----------------------------------------------




 CHD PACKAGE (CHD-FROM-IBOUND) FLOW RATES   PERIOD     19   STEP        4
 -----------------------------------------------
   NUMBER   CELLID                    RATE      
 -----------------------------------------------
     1      (1,1,1)              -1357.8121     
     2      (1,1,2)              -1357.8013     
     3      (1,1,3)              -1357.7012     
     4      (1,1,4)              -1356.9995     
     5      (1,1,5)              -1354.5097     
     6      (1,1,6)              -1357.0012     
     7      (1,1,7)              -1357.7040     
     8      (1,1,8)              -1357.8044     
     9      (1,1,9)              -1357.8150     
     10     (1,21,1)             -1357.8143     
     11     (1,21,2)             -1357.8135     
     12     (1,21,3)             -1357.8127     
     13     (1,21,4)             -1357.8120     
     14     (1,21,5)             -1357.8115     
     15     (1,21,6)             -1357.8116     
     16     (1,21,7)             -1357.8125     
     17     (1,21,8)             -1357.8145     
     18     (1,21,9)             -1357.8165     
 -----------------------------------------------




 HEAD WILL BE SAVED ON UNIT 1016 AT END OF TIME STEP    4, STRESS PERIOD   19


  VOLUME BUDGET FOR ENTIRE MODEL AT END OF TIME STEP    4, STRESS PERIOD  19
  ---------------------------------------------------------------------------------------------------

     CUMULATIVE VOLUME      L**3       RATES FOR THIS TIME STEP      L**3/T          PACKAGE NAME    
     ------------------                 ------------------------                     ----------------

           IN:                                      IN:
           ---                                      ---
              STO-SS =     5709896.2863                STO-SS =       22070.0314     STORAGE                          
              STO-SY =      246496.1948                STO-SY =         990.4360     STORAGE                          
                 WEL =           0.0000                   WEL =           0.0000     WEL-1                            
                RCHA =    32640919.0721                  RCHA =       21375.0000     RCH-1                            
                 CHD =           0.0000                   CHD =           0.0000     CHD-FROM-IBOUND                  

            TOTAL IN =    38597311.5532              TOTAL IN =       44435.4674

          OUT:                                     OUT:
          ----                                     ----
              STO-SS =    22323953.4994                STO-SS =           0.0000     STORAGE                          
              STO-SY =      929662.4369                STO-SY =           0.0000     STORAGE                          
                 WEL =     3215210.8277                   WEL =       20000.0000     WEL-1                            
                RCHA =           0.0000                  RCHA =           0.0000     RCH-1                            
                 CHD =    12128503.2455                   CHD =       24435.4675     CHD-FROM-IBOUND                  

           TOTAL OUT =    38597330.0095             TOTAL OUT =       44435.4675

            IN - OUT =         -18.4563              IN - OUT =      -7.2937E-05

 PERCENT DISCREPANCY =          -0.00     PERCENT DISCREPANCY =          -0.00




         TIME SUMMARY AT END OF TIME STEP    4 IN STRESS PERIOD   19
                    SECONDS     MINUTES      HOURS       DAYS        YEARS
                    -----------------------------------------------------------
   TIME STEP LENGTH 2.71468E+05  4524.5      75.408      3.1420     8.60231E-03
 STRESS PERIOD TIME 8.43311E+05  14055.      234.25      9.7605     2.67229E-02
         TOTAL TIME 4.55121E+07 7.58535E+05  12642.      526.76      1.4422    


end timestep


start timestep kper="19" kstp="5" mode="normal"

 UBDSV1 SAVING     FLOW-JA-FACE ON UNIT   1015 AT TIME STEP      5, STRESS PERIOD     19
 UBDSV06 SAVING              WEL IN MODEL MUMODEL          PACKAGE MUMODEL         CONNECTED TO MODEL MUMODEL          PACKAGE WEL-1            ON UNIT   1015 AT TIME STEP      5, STRESS PERIOD     19
 UBDSV06 SAVING             RCHA IN MODEL MUMODEL          PACKAGE MUMODEL         CONNECTED TO MODEL MUMODEL          PACKAGE RCH-1            ON UNIT   1015 AT TIME STEP      5, STRESS PERIOD     19

 WEL PACKAGE (WEL-1) FLOW RATES   PERIOD     19   STEP        5
 -----------------------------------------------
   NUMBER   CELLID                    RATE      
 -----------------------------------------------
     1      (1,5,5)              -20000.000     
     2      (1,11,5)              0.0000000     
     3      (1,5,5)               0.0000000     
 -----------------------------------------------




 CHD PACKAGE (CHD-FROM-IBOUND) FLOW RATES   PERIOD     19   STEP        5
 -----------------------------------------------
   NUMBER   CELLID                    RATE      
 -----------------------------------------------
     1      (1,1,1)              -1356.9582     
     2      (1,1,2)              -1356.9460     
     3      (1,1,3)              -1356.8349     
     4      (1,1,4)              -1356.0700     
     5      (1,1,5)              -1353.4142     
     6      (1,1,6)              -1356.0717     
     7      (1,1,7)              -1356.8376     
     8      (1,1,8)              -1356.9491     
     9      (1,1,9)              -1356.9610     
     10     (1,21,1)             -1356.9604     
     11     (1,21,2)             -1356.9597     
     12     (1,21,3)             -1356.9589     
     13     (1,21,4)             -1356.9582     
     14     (1,21,5)             -1356.9577     
     15     (1,21,6)             -1356.9578     
     16     (1,21,7)             -1356.9587     
     17     (1,21,8)             -1356.9607     
     18     (1,21,9)             -1356.9627     
 -----------------------------------------------




 HEAD WILL BE SAVED ON UNIT 1016 AT END OF TIME STEP    5, STRESS PERIOD   19


  VOLUME BUDGET FOR ENTIRE MODEL AT END OF TIME STEP    5, STRESS PERIOD  19
  ---------------------------------------------------------------------------------------------------

     CUMULATIVE VOLUME      L**3       RATES FOR THIS TIME STEP      L**3/T          PACKAGE NAME    
     ------------------                 ------------------------                     ----------------

           IN:                                      IN:
           ---                                      ---
              STO-SS =     5793051.9593                STO-SS =       22054.9206     STORAGE                          
              STO-SY =      250227.9654                STO-SY =         989.7569     STORAGE                          
                 WEL =           0.0000                   WEL =           0.0000     WEL-1                            
                RCHA =    32721511.1786                  RCHA =       21375.0000     RCH-1                            
                 CHD =           0.0000                   CHD =           0.0000     CHD-FROM-IBOUND                  

            TOTAL IN =    38764791.1032              TOTAL IN =       44419.6775

          OUT:                                     OUT:
          ----                                     ----
              STO-SS =    22323953.4994                STO-SS =           0.0000     STORAGE                          
              STO-SY =      929662.4369                STO-SY =           0.0000     STORAGE                          
                 WEL =     3290618.6467                   WEL =       20000.0000     WEL-1                            
                RCHA =           0.0000                  RCHA =           0.0000     RCH-1                            
                 CHD =    12220574.9770                   CHD =       24419.6776     CHD-FROM-IBOUND                  

           TOTAL OUT =    38764809.5600             TOTAL OUT =       44419.6776

            IN - OUT =         -18.4568              IN - OUT =      -1.2157E-04

 PERCENT DISCREPANCY =          -0.00     PERCENT DISCREPANCY =          -0.00




         TIME SUMMARY AT END OF TIME STEP    5 IN STRESS PERIOD   19
                    SECONDS     MINUTES      HOURS       DAYS        YEARS
                    -----------------------------------------------------------
   TIME STEP LENGTH 3.25762E+05  5429.4      90.489      3.7704     1.03228E-02
 STRESS PERIOD TIME 1.16907E+06  19485.      324.74      13.531     3.70457E-02
         TOTAL TIME 4.58379E+07 7.63965E+05  12733.      530.53      1.4525    


end timestep


start timestep kper="19" kstp="6" mode="normal"

 UBDSV1 SAVING     FLOW-JA-FACE ON UNIT   1015 AT TIME STEP      6, STRESS PERIOD     19
 UBDSV06 SAVING              WEL IN MODEL MUMODEL          PACKAGE MUMODEL         CONNECTED TO MODEL MUMODEL          PACKAGE WEL-1            ON UNIT   1015 AT TIME STEP      6, STRESS PERIOD     19
 UBDSV06 SAVING             RCHA IN MODEL MUMODEL          PACKAGE MUMODEL         CONNECTED TO MODEL MUMODEL          PACKAGE RCH-1            ON UNIT   1015 AT TIME STEP      6, STRESS PERIOD     19

 WEL PACKAGE (WEL-1) FLOW RATES   PERIOD     19   STEP        6
 -----------------------------------------------
   NUMBER   CELLID                    RATE      
 -----------------------------------------------
     1      (1,5,5)              -20000.000     
     2      (1,11,5)              0.0000000     
     3      (1,5,5)               0.0000000     
 -----------------------------------------------




 CHD PACKAGE (CHD-FROM-IBOUND) FLOW RATES   PERIOD     19   STEP        6
 -----------------------------------------------
   NUMBER   CELLID                    RATE      
 -----------------------------------------------
     1      (1,1,1)              -1355.9481     
     2      (1,1,2)              -1355.9342     
     3      (1,1,3)              -1355.8084     
     4      (1,1,4)              -1354.9624     
     5      (1,1,5)              -1352.0988     
     6      (1,1,6)              -1354.9640     
     7      (1,1,7)              -1355.8112     
     8      (1,1,8)              -1355.9373     
     9      (1,1,9)              -1355.9509     
     10     (1,21,1)             -1355.9505     
     11     (1,21,2)             -1355.9498     
     12     (1,21,3)             -1355.9490     
     13     (1,21,4)             -1355.9483     
     14     (1,21,5)             -1355.9479     
     15     (1,21,6)             -1355.9479     
     16     (1,21,7)             -1355.9489     
     17     (1,21,8)             -1355.9509     
     18     (1,21,9)             -1355.9528     
 -----------------------------------------------




 HEAD WILL BE SAVED ON UNIT 1016 AT END OF TIME STEP    6, STRESS PERIOD   19


  VOLUME BUDGET FOR ENTIRE MODEL AT END OF TIME STEP    6, STRESS PERIOD  19
  ---------------------------------------------------------------------------------------------------

     CUMULATIVE VOLUME      L**3       RATES FOR THIS TIME STEP      L**3/T          PACKAGE NAME    
     ------------------                 ------------------------                     ----------------

           IN:                                      IN:
           ---                                      ---
              STO-SS =     5892757.7812                STO-SS =       22037.0211     STORAGE                          
              STO-SY =      254702.3938                STO-SY =         988.9400     STORAGE                          
                 WEL =           0.0000                   WEL =           0.0000     WEL-1                            
                RCHA =    32818221.7065                  RCHA =       21375.0000     RCH-1                            
                 CHD =           0.0000                   CHD =           0.0000     CHD-FROM-IBOUND                  

            TOTAL IN =    38965681.8815              TOTAL IN =       44400.9611

          OUT:                                     OUT:
          ----                                     ----
              STO-SS =    22323953.4994                STO-SS =           0.0000     STORAGE                          
              STO-SY =      929662.4369                STO-SY =           0.0000     STORAGE                          
                 WEL =     3381108.0295                   WEL =       20000.0000     WEL-1                            
                RCHA =           0.0000                  RCHA =           0.0000     RCH-1                            
                 CHD =    12330976.3734                   CHD =       24400.9613     CHD-FROM-IBOUND                  

           TOTAL OUT =    38965700.3392             TOTAL OUT =       44400.9613

            IN - OUT =         -18.4577              IN - OUT =      -2.0632E-04

 PERCENT DISCREPANCY =          -0.00     PERCENT DISCREPANCY =          -0.00




         TIME SUMMARY AT END OF TIME STEP    6 IN STRESS PERIOD   19
                    SECONDS     MINUTES      HOURS       DAYS        YEARS
                    -----------------------------------------------------------
   TIME STEP LENGTH 3.90914E+05  6515.2      108.59      4.5245     1.23873E-02
 STRESS PERIOD TIME 1.55999E+06  26000.      433.33      18.055     4.94330E-02
         TOTAL TIME 4.62288E+07 7.70480E+05  12841.      535.06      1.4649    


end timestep


start timestep kper="19" kstp="7" mode="normal"

 UBDSV1 SAVING     FLOW-JA-FACE ON UNIT   1015 AT TIME STEP      7, STRESS PERIOD     19
 UBDSV06 SAVING              WEL IN MODEL MUMODEL          PACKAGE MUMODEL         CONNECTED TO MODEL MUMODEL          PACKAGE WEL-1            ON UNIT   1015 AT TIME STEP      7, STRESS PERIOD     19
 UBDSV06 SAVING             RCHA IN MODEL MUMODEL          PACKAGE MUMODEL         CONNECTED TO MODEL MUMODEL          PACKAGE RCH-1            ON UNIT   1015 AT TIME STEP      7, STRESS PERIOD     19

 WEL PACKAGE (WEL-1) FLOW RATES   PERIOD     19   STEP        7
 -----------------------------------------------
   NUMBER   CELLID                    RATE      
 -----------------------------------------------
     1      (1,5,5)              -20000.000     
     2      (1,11,5)              0.0000000     
     3      (1,5,5)               0.0000000     
 -----------------------------------------------




 CHD PACKAGE (CHD-FROM-IBOUND) FLOW RATES   PERIOD     19   STEP        7
 -----------------------------------------------
   NUMBER   CELLID                    RATE      
 -----------------------------------------------
     1      (1,1,1)              -1354.7567     
     2      (1,1,2)              -1354.7404     
     3      (1,1,3)              -1354.5949     
     4      (1,1,4)              -1353.6432     
     5      (1,1,5)              -1350.5185     
     6      (1,1,6)              -1353.6449     
     7      (1,1,7)              -1354.5976     
     8      (1,1,8)              -1354.7434     
     9      (1,1,9)              -1354.7594     
     10     (1,21,1)             -1354.7593     
     11     (1,21,2)             -1354.7586     
     12     (1,21,3)             -1354.7578     
     13     (1,21,4)             -1354.7571     
     14     (1,21,5)             -1354.7567     
     15     (1,21,6)             -1354.7568     
     16     (1,21,7)             -1354.7578     
     17     (1,21,8)             -1354.7597     
     18     (1,21,9)             -1354.7616     
 -----------------------------------------------




 HEAD WILL BE SAVED ON UNIT 1016 AT END OF TIME STEP    7, STRESS PERIOD   19


  VOLUME BUDGET FOR ENTIRE MODEL AT END OF TIME STEP    7, STRESS PERIOD  19
  ---------------------------------------------------------------------------------------------------

     CUMULATIVE VOLUME      L**3       RATES FOR THIS TIME STEP      L**3/T          PACKAGE NAME    
     ------------------                 ------------------------                     ----------------

           IN:                                      IN:
           ---                                      ---
              STO-SS =     6012289.9097                STO-SS =       22015.8662     STORAGE                          
              STO-SY =      260066.3770                STO-SY =         987.9581     STORAGE                          
                 WEL =           0.0000                   WEL =           0.0000     WEL-1                            
                RCHA =    32934274.3399                  RCHA =       21375.0000     RCH-1                            
                 CHD =           0.0000                   CHD =           0.0000     CHD-FROM-IBOUND                  

            TOTAL IN =    39206630.6266              TOTAL IN =       44378.8243

          OUT:                                     OUT:
          ----                                     ----
              STO-SS =    22323953.4994                STO-SS =           0.0000     STORAGE                          
              STO-SY =      929662.4369                STO-SY =           0.0000     STORAGE                          
                 WEL =     3489695.2888                   WEL =       20000.0000     WEL-1                            
                RCHA =           0.0000                  RCHA =           0.0000     RCH-1                            
                 CHD =    12463337.8610                   CHD =       24378.8246     CHD-FROM-IBOUND                  

           TOTAL OUT =    39206649.0862             TOTAL OUT =       44378.8246

            IN - OUT =         -18.4595              IN - OUT =      -3.4008E-04

 PERCENT DISCREPANCY =          -0.00     PERCENT DISCREPANCY =          -0.00




         TIME SUMMARY AT END OF TIME STEP    7 IN STRESS PERIOD   19
                    SECONDS     MINUTES      HOURS       DAYS        YEARS
                    -----------------------------------------------------------
   TIME STEP LENGTH 4.69097E+05  7818.3      130.30      5.4294     1.48648E-02
 STRESS PERIOD TIME 2.02908E+06  33818.      563.63      23.485     6.42978E-02
         TOTAL TIME 4.66979E+07 7.78298E+05  12972.      540.48      1.4798    


end timestep


start timestep kper="19" kstp="8" mode="normal"

 UBDSV1 SAVING     FLOW-JA-FACE ON UNIT   1015 AT TIME STEP      8, STRESS PERIOD     19
 UBDSV06 SAVING              WEL IN MODEL MUMODEL          PACKAGE MUMODEL         CONNECTED TO MODEL MUMODEL          PACKAGE WEL-1            ON UNIT   1015 AT TIME STEP      8, STRESS PERIOD     19
 UBDSV06 SAVING             RCHA IN MODEL MUMODEL          PACKAGE MUMODEL         CONNECTED TO MODEL MUMODEL          PACKAGE RCH-1            ON UNIT   1015 AT TIME STEP      8, STRESS PERIOD     19

 WEL PACKAGE (WEL-1) FLOW RATES   PERIOD     19   STEP        8
 -----------------------------------------------
   NUMBER   CELLID                    RATE      
 -----------------------------------------------
     1      (1,5,5)              -20000.000     
     2      (1,11,5)              0.0000000     
     3      (1,5,5)               0.0000000     
 -----------------------------------------------




 CHD PACKAGE (CHD-FROM-IBOUND) FLOW RATES   PERIOD     19   STEP        8
 -----------------------------------------------
   NUMBER   CELLID                    RATE      
 -----------------------------------------------
     1      (1,1,1)              -1353.3559     
     2      (1,1,2)              -1353.3362     
     3      (1,1,3)              -1353.1639     
     4      (1,1,4)              -1352.0732     
     5      (1,1,5)              -1348.6181     
     6      (1,1,6)              -1352.0748     
     7      (1,1,7)              -1353.1666     
     8      (1,1,8)              -1353.3392     
     9      (1,1,9)              -1353.3586     
     10     (1,21,1)             -1353.3589     
     11     (1,21,2)             -1353.3582     
     12     (1,21,3)             -1353.3574     
     13     (1,21,4)             -1353.3567     
     14     (1,21,5)             -1353.3563     
     15     (1,21,6)             -1353.3564     
     16     (1,21,7)             -1353.3574     
     17     (1,21,8)             -1353.3593     
     18     (1,21,9)             -1353.3612     
 -----------------------------------------------




 HEAD WILL BE SAVED ON UNIT 1016 AT END OF TIME STEP    8, STRESS PERIOD   19


  VOLUME BUDGET FOR ENTIRE MODEL AT END OF TIME STEP    8, STRESS PERIOD  19
  ---------------------------------------------------------------------------------------------------

     CUMULATIVE VOLUME      L**3       RATES FOR THIS TIME STEP      L**3/T          PACKAGE NAME    
     ------------------                 ------------------------                     ----------------

           IN:                                      IN:
           ---                                      ---
              STO-SS =     6155565.9849                STO-SS =       21990.9279     STORAGE                          
              STO-SY =      266495.4785                STO-SY =         986.7796     STORAGE                          
                 WEL =           0.0000                   WEL =           0.0000     WEL-1                            
                RCHA =    33073537.5000                  RCHA =       21375.0000     RCH-1                            
                 CHD =           0.0000                   CHD =           0.0000     CHD-FROM-IBOUND                  

            TOTAL IN =    39495598.9634              TOTAL IN =       44352.7075

          OUT:                                     OUT:
          ----                                     ----
              STO-SS =    22323953.4994                STO-SS =           0.0000     STORAGE                          
              STO-SY =      929662.4369                STO-SY =           0.0000     STORAGE                          
                 WEL =     3620000.0000                   WEL =       20000.0000     WEL-1                            
                RCHA =           0.0000                  RCHA =           0.0000     RCH-1                            
                 CHD =    12622001.4903                   CHD =       24352.7080     CHD-FROM-IBOUND                  

           TOTAL OUT =    39495617.4266             TOTAL OUT =       44352.7080

            IN - OUT =         -18.4632              IN - OUT =      -5.5985E-04

 PERCENT DISCREPANCY =          -0.00     PERCENT DISCREPANCY =          -0.00




         TIME SUMMARY AT END OF TIME STEP    8 IN STRESS PERIOD   19
                    SECONDS     MINUTES      HOURS       DAYS        YEARS
                    -----------------------------------------------------------
   TIME STEP LENGTH 5.62916E+05  9381.9      156.37      6.5152     1.78377E-02
 STRESS PERIOD TIME 2.59200E+06  43200.      720.00      30.000     8.21355E-02
         TOTAL TIME 4.72608E+07 7.87680E+05  13128.      547.00      1.4976    


end timestep


start timestep kper="20" kstp="1" mode="normal"


 OUTPUT CONTROL FOR STRESS PERIOD 20 IS REPEATED USING SETTINGS FROM A PREVIOUS STRESS PERIOD.


 STRESS PERIOD 20 IS TRANSIENT


 REUSING WELS FROM LAST STRESS PERIOD

                 RECHARGE =  0.5000000E-04

 REUSING CHDS FROM LAST STRESS PERIOD
 UBDSV1 SAVING     FLOW-JA-FACE ON UNIT   1015 AT TIME STEP      1, STRESS PERIOD     20
 UBDSV06 SAVING              WEL IN MODEL MUMODEL          PACKAGE MUMODEL         CONNECTED TO MODEL MUMODEL          PACKAGE WEL-1            ON UNIT   1015 AT TIME STEP      1, STRESS PERIOD     20
 UBDSV06 SAVING             RCHA IN MODEL MUMODEL          PACKAGE MUMODEL         CONNECTED TO MODEL MUMODEL          PACKAGE RCH-1            ON UNIT   1015 AT TIME STEP      1, STRESS PERIOD     20

 WEL PACKAGE (WEL-1) FLOW RATES   PERIOD     20   STEP        1
 -----------------------------------------------
   NUMBER   CELLID                    RATE      
 -----------------------------------------------
     1      (1,5,5)              -20000.000     
     2      (1,11,5)              0.0000000     
     3      (1,5,5)               0.0000000     
 -----------------------------------------------




 CHD PACKAGE (CHD-FROM-IBOUND) FLOW RATES   PERIOD     20   STEP        1
 -----------------------------------------------
   NUMBER   CELLID                    RATE      
 -----------------------------------------------
     1      (1,1,1)              -1352.5531     
     2      (1,1,2)              -1352.5323     
     3      (1,1,3)              -1352.3520     
     4      (1,1,4)              -1351.2203     
     5      (1,1,5)              -1347.6684     
     6      (1,1,6)              -1351.2219     
     7      (1,1,7)              -1352.3547     
     8      (1,1,8)              -1352.5353     
     9      (1,1,9)              -1352.5558     
     10     (1,21,1)             -1352.5562     
     11     (1,21,2)             -1352.5555     
     12     (1,21,3)             -1352.5547     
     13     (1,21,4)             -1352.5540     
     14     (1,21,5)             -1352.5536     
     15     (1,21,6)             -1352.5537     
     16     (1,21,7)             -1352.5547     
     17     (1,21,8)             -1352.5566     
     18     (1,21,9)             -1352.5585     
 -----------------------------------------------




 HEAD WILL BE SAVED ON UNIT 1016 AT END OF TIME STEP    1, STRESS PERIOD   20


  VOLUME BUDGET FOR ENTIRE MODEL AT END OF TIME STEP    1, STRESS PERIOD  20
  ---------------------------------------------------------------------------------------------------

     CUMULATIVE VOLUME      L**3       RATES FOR THIS TIME STEP      L**3/T          PACKAGE NAME    
     ------------------                 ------------------------                     ----------------

           IN:                                      IN:
           ---                                      ---
              STO-SS =     6231556.7246                STO-SS =       40444.4406     STORAGE                          
              STO-SY =      269794.9082                STO-SY =        1756.0506     STORAGE                          
                 WEL =           0.0000                   WEL =           0.0000     WEL-1                            
                RCHA =    33077553.6319                  RCHA =        2137.5000     RCH-1                            
                 CHD =           0.0000                   CHD =           0.0000     CHD-FROM-IBOUND                  

            TOTAL IN =    39578905.2647              TOTAL IN =       44337.9913

          OUT:                                     OUT:
          ----                                     ----
              STO-SS =    22323953.4994                STO-SS =           0.0000     STORAGE                          
              STO-SY =      929662.4369                STO-SY =           0.0000     STORAGE                          
                 WEL =     3657577.8419                   WEL =       20000.0000     WEL-1                            
                RCHA =           0.0000                  RCHA =           0.0000     RCH-1                            
                 CHD =    12667729.9499                   CHD =       24337.9914     CHD-FROM-IBOUND                  

           TOTAL OUT =    39578923.7281             TOTAL OUT =       44337.9914

            IN - OUT =         -18.4634              IN - OUT =      -1.3635E-04

 PERCENT DISCREPANCY =          -0.00     PERCENT DISCREPANCY =          -0.00




         TIME SUMMARY AT END OF TIME STEP    1 IN STRESS PERIOD   20
                    SECONDS     MINUTES      HOURS       DAYS        YEARS
                    -----------------------------------------------------------
   TIME STEP LENGTH 1.62336E+05  2705.6      45.093      1.8789     5.14413E-03
 STRESS PERIOD TIME 1.62336E+05  2705.6      45.093      1.8789     5.14413E-03
         TOTAL TIME 4.74231E+07 7.90386E+05  13173.      548.88      1.5027    


end timestep


start timestep kper="20" kstp="2" mode="normal"

 UBDSV1 SAVING     FLOW-JA-FACE ON UNIT   1015 AT TIME STEP      2, STRESS PERIOD     20
 UBDSV06 SAVING              WEL IN MODEL MUMODEL          PACKAGE MUMODEL         CONNECTED TO MODEL MUMODEL          PACKAGE WEL-1            ON UNIT   1015 AT TIME STEP      2, STRESS PERIOD     20
 UBDSV06 SAVING             RCHA IN MODEL MUMODEL          PACKAGE MUMODEL         CONNECTED TO MODEL MUMODEL          PACKAGE RCH-1            ON UNIT   1015 AT TIME STEP      2, STRESS PERIOD     20

 WEL PACKAGE (WEL-1) FLOW RATES   PERIOD     20   STEP        2
 -----------------------------------------------
   NUMBER   CELLID                    RATE      
 -----------------------------------------------
     1      (1,5,5)              -20000.000     
     2      (1,11,5)              0.0000000     
     3      (1,5,5)               0.0000000     
 -----------------------------------------------




 CHD PACKAGE (CHD-FROM-IBOUND) FLOW RATES   PERIOD     20   STEP        2
 -----------------------------------------------
   NUMBER   CELLID                    RATE      
 -----------------------------------------------
     1      (1,1,1)              -1351.5951     
     2      (1,1,2)              -1351.5731     
     3      (1,1,3)              -1351.3828     
     4      (1,1,4)              -1350.2002     
     5      (1,1,5)              -1346.5303     
     6      (1,1,6)              -1350.2018     
     7      (1,1,7)              -1351.3855     
     8      (1,1,8)              -1351.5761     
     9      (1,1,9)              -1351.5978     
     10     (1,21,1)             -1351.5984     
     11     (1,21,2)             -1351.5977     
     12     (1,21,3)             -1351.5969     
     13     (1,21,4)             -1351.5963     
     14     (1,21,5)             -1351.5959     
     15     (1,21,6)             -1351.5959     
     16     (1,21,7)             -1351.5969     
     17     (1,21,8)             -1351.5989     
     18     (1,21,9)             -1351.6007     
 -----------------------------------------------




 HEAD WILL BE SAVED ON UNIT 1016 AT END OF TIME STEP    2, STRESS PERIOD   20


  VOLUME BUDGET FOR ENTIRE MODEL AT END OF TIME STEP    2, STRESS PERIOD  20
  ---------------------------------------------------------------------------------------------------

     CUMULATIVE VOLUME      L**3       RATES FOR THIS TIME STEP      L**3/T          PACKAGE NAME    
     ------------------                 ------------------------                     ----------------

           IN:                                      IN:
           ---                                      ---
              STO-SS =     6322707.7130                STO-SS =       40427.6314     STORAGE                          
              STO-SY =      273752.5063                STO-SY =        1755.2889     STORAGE                          
                 WEL =           0.0000                   WEL =           0.0000     WEL-1                            
                RCHA =    33082372.9901                  RCHA =        2137.5000     RCH-1                            
                 CHD =           0.0000                   CHD =           0.0000     CHD-FROM-IBOUND                  

            TOTAL IN =    39678833.2094              TOTAL IN =       44320.4202

          OUT:                                     OUT:
          ----                                     ----
              STO-SS =    22323953.4994                STO-SS =           0.0000     STORAGE                          
              STO-SY =      929662.4369                STO-SY =           0.0000     STORAGE                          
                 WEL =     3702671.2522                   WEL =       20000.0000     WEL-1                            
                RCHA =           0.0000                  RCHA =           0.0000     RCH-1                            
                 CHD =    12722564.4849                   CHD =       24320.4205     CHD-FROM-IBOUND                  

           TOTAL OUT =    39678851.6734             TOTAL OUT =       44320.4205

            IN - OUT =         -18.4640              IN - OUT =      -2.3893E-04

 PERCENT DISCREPANCY =          -0.00     PERCENT DISCREPANCY =          -0.00




         TIME SUMMARY AT END OF TIME STEP    2 IN STRESS PERIOD   20
                    SECONDS     MINUTES      HOURS       DAYS        YEARS
                    -----------------------------------------------------------
   TIME STEP LENGTH 1.94804E+05  3246.7      54.112      2.2547     6.17295E-03
 STRESS PERIOD TIME 3.57140E+05  5952.3      99.206      4.1336     1.13171E-02
         TOTAL TIME 4.76179E+07 7.93632E+05  13227.      551.13      1.5089    


end timestep


start timestep kper="20" kstp="3" mode="normal"

 UBDSV1 SAVING     FLOW-JA-FACE ON UNIT   1015 AT TIME STEP      3, STRESS PERIOD     20
 UBDSV06 SAVING              WEL IN MODEL MUMODEL          PACKAGE MUMODEL         CONNECTED TO MODEL MUMODEL          PACKAGE WEL-1            ON UNIT   1015 AT TIME STEP      3, STRESS PERIOD     20
 UBDSV06 SAVING             RCHA IN MODEL MUMODEL          PACKAGE MUMODEL         CONNECTED TO MODEL MUMODEL          PACKAGE RCH-1            ON UNIT   1015 AT TIME STEP      3, STRESS PERIOD     20

 WEL PACKAGE (WEL-1) FLOW RATES   PERIOD     20   STEP        3
 -----------------------------------------------
   NUMBER   CELLID                    RATE      
 -----------------------------------------------
     1      (1,5,5)              -20000.000     
     2      (1,11,5)              0.0000000     
     3      (1,5,5)               0.0000000     
 -----------------------------------------------




 CHD PACKAGE (CHD-FROM-IBOUND) FLOW RATES   PERIOD     20   STEP        3
 -----------------------------------------------
   NUMBER   CELLID                    RATE      
 -----------------------------------------------
     1      (1,1,1)              -1350.4534     
     2      (1,1,2)              -1350.4297     
     3      (1,1,3)              -1350.2268     
     4      (1,1,4)              -1348.9810     
     5      (1,1,5)              -1345.1665     
     6      (1,1,6)              -1348.9826     
     7      (1,1,7)              -1350.2295     
     8      (1,1,8)              -1350.4327     
     9      (1,1,9)              -1350.4561     
     10     (1,21,1)             -1350.4568     
     11     (1,21,2)             -1350.4561     
     12     (1,21,3)             -1350.4554     
     13     (1,21,4)             -1350.4547     
     14     (1,21,5)             -1350.4543     
     15     (1,21,6)             -1350.4544     
     16     (1,21,7)             -1350.4554     
     17     (1,21,8)             -1350.4573     
     18     (1,21,9)             -1350.4592     
 -----------------------------------------------




 HEAD WILL BE SAVED ON UNIT 1016 AT END OF TIME STEP    3, STRESS PERIOD   20


  VOLUME BUDGET FOR ENTIRE MODEL AT END OF TIME STEP    3, STRESS PERIOD  20
  ---------------------------------------------------------------------------------------------------

     CUMULATIVE VOLUME      L**3       RATES FOR THIS TIME STEP      L**3/T          PACKAGE NAME    
     ------------------                 ------------------------                     ----------------

           IN:                                      IN:
           ---                                      ---
              STO-SS =     6432034.6571                STO-SS =       40407.5834     STORAGE                          
              STO-SY =      278499.1594                STO-SY =        1754.3780     STORAGE                          
                 WEL =           0.0000                   WEL =           0.0000     WEL-1                            
                RCHA =    33088156.2199                  RCHA =        2137.5000     RCH-1                            
                 CHD =           0.0000                   CHD =           0.0000     CHD-FROM-IBOUND                  

            TOTAL IN =    39798690.0364              TOTAL IN =       44299.4613

          OUT:                                     OUT:
          ----                                     ----
              STO-SS =    22323953.4994                STO-SS =           0.0000     STORAGE                          
              STO-SY =      929662.4369                STO-SY =           0.0000     STORAGE                          
                 WEL =     3756783.3445                   WEL =       20000.0000     WEL-1                            
                RCHA =           0.0000                  RCHA =           0.0000     RCH-1                            
                 CHD =    12788309.2207                   CHD =       24299.4617     CHD-FROM-IBOUND                  

           TOTAL OUT =    39798708.5015             TOTAL OUT =       44299.4617

            IN - OUT =         -18.4651              IN - OUT =      -3.9994E-04

 PERCENT DISCREPANCY =          -0.00     PERCENT DISCREPANCY =          -0.00




         TIME SUMMARY AT END OF TIME STEP    3 IN STRESS PERIOD   20
                    SECONDS     MINUTES      HOURS       DAYS        YEARS
                    -----------------------------------------------------------
   TIME STEP LENGTH 2.33764E+05  3896.1      64.935      2.7056     7.40754E-03
 STRESS PERIOD TIME 5.90904E+05  9848.4      164.14      6.8392     1.87246E-02
         TOTAL TIME 4.78517E+07 7.97528E+05  13292.      553.84      1.5163    


end timestep


start timestep kper="20" kstp="4" mode="normal"

 UBDSV1 SAVING     FLOW-JA-FACE ON UNIT   1015 AT TIME STEP      4, STRESS PERIOD     20
 UBDSV06 SAVING              WEL IN MODEL MUMODEL          PACKAGE MUMODEL         CONNECTED TO MODEL MUMODEL          PACKAGE WEL-1            ON UNIT   1015 AT TIME STEP      4, STRESS PERIOD     20
 UBDSV06 SAVING             RCHA IN MODEL MUMODEL          PACKAGE MUMODEL         CONNECTED TO MODEL MUMODEL          PACKAGE RCH-1            ON UNIT   1015 AT TIME STEP      4, STRESS PERIOD     20

 WEL PACKAGE (WEL-1) FLOW RATES   PERIOD     20   STEP        4
 -----------------------------------------------
   NUMBER   CELLID                    RATE      
 -----------------------------------------------
     1      (1,5,5)              -20000.000     
     2      (1,11,5)              0.0000000     
     3      (1,5,5)               0.0000000     
 -----------------------------------------------




 CHD PACKAGE (CHD-FROM-IBOUND) FLOW RATES   PERIOD     20   STEP        4
 -----------------------------------------------
   NUMBER   CELLID                    RATE      
 -----------------------------------------------
     1      (1,1,1)              -1349.0942     
     2      (1,1,2)              -1349.0685     
     3      (1,1,3)              -1348.8495     
     4      (1,1,4)              -1347.5247     
     5      (1,1,5)              -1343.5326     
     6      (1,1,6)              -1347.5263     
     7      (1,1,7)              -1348.8522     
     8      (1,1,8)              -1349.0714     
     9      (1,1,9)              -1349.0969     
     10     (1,21,1)             -1349.0979     
     11     (1,21,2)             -1349.0973     
     12     (1,21,3)             -1349.0965     
     13     (1,21,4)             -1349.0958     
     14     (1,21,5)             -1349.0954     
     15     (1,21,6)             -1349.0955     
     16     (1,21,7)             -1349.0965     
     17     (1,21,8)             -1349.0984     
     18     (1,21,9)             -1349.1003     
 -----------------------------------------------




 HEAD WILL BE SAVED ON UNIT 1016 AT END OF TIME STEP    4, STRESS PERIOD   20


  VOLUME BUDGET FOR ENTIRE MODEL AT END OF TIME STEP    4, STRESS PERIOD  20
  ---------------------------------------------------------------------------------------------------

     CUMULATIVE VOLUME      L**3       RATES FOR THIS TIME STEP      L**3/T          PACKAGE NAME    
     ------------------                 ------------------------                     ----------------

           IN:                                      IN:
           ---                                      ---
              STO-SS =     6563149.4486                STO-SS =       40383.7004     STORAGE                          
              STO-SY =      284191.6096                STO-SY =        1753.2896     STORAGE                          
                 WEL =           0.0000                   WEL =           0.0000     WEL-1                            
                RCHA =    33095096.0958                  RCHA =        2137.5000     RCH-1                            
                 CHD =           0.0000                   CHD =           0.0000     CHD-FROM-IBOUND                  

            TOTAL IN =    39942437.1540              TOTAL IN =       44274.4900

          OUT:                                     OUT:
          ----                                     ----
              STO-SS =    22323953.4994                STO-SS =           0.0000     STORAGE                          
              STO-SY =      929662.4369                STO-SY =           0.0000     STORAGE                          
                 WEL =     3821717.8553                   WEL =       20000.0000     WEL-1                            
                RCHA =           0.0000                  RCHA =           0.0000     RCH-1                            
                 CHD =    12867121.8277                   CHD =       24274.4901     CHD-FROM-IBOUND                  

           TOTAL OUT =    39942455.6193             TOTAL OUT =       44274.4901

            IN - OUT =         -18.4653              IN - OUT =      -7.6187E-05

 PERCENT DISCREPANCY =          -0.00     PERCENT DISCREPANCY =          -0.00




         TIME SUMMARY AT END OF TIME STEP    4 IN STRESS PERIOD   20
                    SECONDS     MINUTES      HOURS       DAYS        YEARS
                    -----------------------------------------------------------
   TIME STEP LENGTH 2.80517E+05  4675.3      77.921      3.2467     8.88905E-03
 STRESS PERIOD TIME 8.71421E+05  14524.      242.06      10.086     2.76137E-02
         TOTAL TIME 4.81322E+07 8.02204E+05  13370.      557.09      1.5252    


end timestep


start timestep kper="20" kstp="5" mode="normal"

 UBDSV1 SAVING     FLOW-JA-FACE ON UNIT   1015 AT TIME STEP      5, STRESS PERIOD     20
 UBDSV06 SAVING              WEL IN MODEL MUMODEL          PACKAGE MUMODEL         CONNECTED TO MODEL MUMODEL          PACKAGE WEL-1            ON UNIT   1015 AT TIME STEP      5, STRESS PERIOD     20
 UBDSV06 SAVING             RCHA IN MODEL MUMODEL          PACKAGE MUMODEL         CONNECTED TO MODEL MUMODEL          PACKAGE RCH-1            ON UNIT   1015 AT TIME STEP      5, STRESS PERIOD     20

 WEL PACKAGE (WEL-1) FLOW RATES   PERIOD     20   STEP        5
 -----------------------------------------------
   NUMBER   CELLID                    RATE      
 -----------------------------------------------
     1      (1,5,5)              -20000.000     
     2      (1,11,5)              0.0000000     
     3      (1,5,5)               0.0000000     
 -----------------------------------------------




 CHD PACKAGE (CHD-FROM-IBOUND) FLOW RATES   PERIOD     20   STEP        5
 -----------------------------------------------
   NUMBER   CELLID                    RATE      
 -----------------------------------------------
     1      (1,1,1)              -1347.4789     
     2      (1,1,2)              -1347.4503     
     3      (1,1,3)              -1347.2108     
     4      (1,1,4)              -1345.7864     
     5      (1,1,5)              -1341.5754     
     6      (1,1,6)              -1345.7880     
     7      (1,1,7)              -1347.2134     
     8      (1,1,8)              -1347.4532     
     9      (1,1,9)              -1347.4815     
     10     (1,21,1)             -1347.4829     
     11     (1,21,2)             -1347.4822     
     12     (1,21,3)             -1347.4815     
     13     (1,21,4)             -1347.4808     
     14     (1,21,5)             -1347.4804     
     15     (1,21,6)             -1347.4806     
     16     (1,21,7)             -1347.4815     
     17     (1,21,8)             -1347.4834     
     18     (1,21,9)             -1347.4853     
 -----------------------------------------------




 HEAD WILL BE SAVED ON UNIT 1016 AT END OF TIME STEP    5, STRESS PERIOD   20


  VOLUME BUDGET FOR ENTIRE MODEL AT END OF TIME STEP    5, STRESS PERIOD  20
  ---------------------------------------------------------------------------------------------------

     CUMULATIVE VOLUME      L**3       RATES FOR THIS TIME STEP      L**3/T          PACKAGE NAME    
     ------------------                 ------------------------                     ----------------

           IN:                                      IN:
           ---                                      ---
              STO-SS =     6720376.4938                STO-SS =       40355.2860     STORAGE                          
              STO-SY =      291017.4891                STO-SY =        1751.9907     STORAGE                          
                 WEL =           0.0000                   WEL =           0.0000     WEL-1                            
                RCHA =    33103423.9468                  RCHA =        2137.5000     RCH-1                            
                 CHD =           0.0000                   CHD =           0.0000     CHD-FROM-IBOUND                  

            TOTAL IN =    40114817.9296              TOTAL IN =       44244.7767

          OUT:                                     OUT:
          ----                                     ----
              STO-SS =    22323953.4994                STO-SS =           0.0000     STORAGE                          
              STO-SY =      929662.4369                STO-SY =           0.0000     STORAGE                          
                 WEL =     3899639.2682                   WEL =       20000.0000     WEL-1                            
                RCHA =           0.0000                  RCHA =           0.0000     RCH-1                            
                 CHD =    12961581.1909                   CHD =       24244.7768     CHD-FROM-IBOUND                  

           TOTAL OUT =    40114836.3954             TOTAL OUT =       44244.7768

            IN - OUT =         -18.4658              IN - OUT =      -1.2469E-04

 PERCENT DISCREPANCY =          -0.00     PERCENT DISCREPANCY =          -0.00




         TIME SUMMARY AT END OF TIME STEP    5 IN STRESS PERIOD   20
                    SECONDS     MINUTES      HOURS       DAYS        YEARS
                    -----------------------------------------------------------
   TIME STEP LENGTH 3.36621E+05  5610.3      93.506      3.8961     1.06669E-02
 STRESS PERIOD TIME 1.20804E+06  20134.      335.57      13.982     3.82805E-02
         TOTAL TIME 4.84688E+07 8.07814E+05  13464.      560.98      1.5359    


end timestep


start timestep kper="20" kstp="6" mode="normal"

 UBDSV1 SAVING     FLOW-JA-FACE ON UNIT   1015 AT TIME STEP      6, STRESS PERIOD     20
 UBDSV06 SAVING              WEL IN MODEL MUMODEL          PACKAGE MUMODEL         CONNECTED TO MODEL MUMODEL          PACKAGE WEL-1            ON UNIT   1015 AT TIME STEP      6, STRESS PERIOD     20
 UBDSV06 SAVING             RCHA IN MODEL MUMODEL          PACKAGE MUMODEL         CONNECTED TO MODEL MUMODEL          PACKAGE RCH-1            ON UNIT   1015 AT TIME STEP      6, STRESS PERIOD     20

 WEL PACKAGE (WEL-1) FLOW RATES   PERIOD     20   STEP        6
 -----------------------------------------------
   NUMBER   CELLID                    RATE      
 -----------------------------------------------
     1      (1,5,5)              -20000.000     
     2      (1,11,5)              0.0000000     
     3      (1,5,5)               0.0000000     
 -----------------------------------------------




 CHD PACKAGE (CHD-FROM-IBOUND) FLOW RATES   PERIOD     20   STEP        6
 -----------------------------------------------
   NUMBER   CELLID                    RATE      
 -----------------------------------------------
     1      (1,1,1)              -1345.5625     
     2      (1,1,2)              -1345.5302     
     3      (1,1,3)              -1345.2640     
     4      (1,1,4)              -1343.7132     
     5      (1,1,5)              -1339.2312     
     6      (1,1,6)              -1343.7147     
     7      (1,1,7)              -1345.2666     
     8      (1,1,8)              -1345.5331     
     9      (1,1,9)              -1345.5651     
     10     (1,21,1)             -1345.5669     
     11     (1,21,2)             -1345.5663     
     12     (1,21,3)             -1345.5655     
     13     (1,21,4)             -1345.5649     
     14     (1,21,5)             -1345.5645     
     15     (1,21,6)             -1345.5646     
     16     (1,21,7)             -1345.5656     
     17     (1,21,8)             -1345.5675     
     18     (1,21,9)             -1345.5694     
 -----------------------------------------------




 HEAD WILL BE SAVED ON UNIT 1016 AT END OF TIME STEP    6, STRESS PERIOD   20


  VOLUME BUDGET FOR ENTIRE MODEL AT END OF TIME STEP    6, STRESS PERIOD  20
  ---------------------------------------------------------------------------------------------------

     CUMULATIVE VOLUME      L**3       RATES FOR THIS TIME STEP      L**3/T          PACKAGE NAME    
     ------------------                 ------------------------                     ----------------

           IN:                                      IN:
           ---                                      ---
              STO-SS =     6908891.1453                STO-SS =       40321.5335     STORAGE                          
              STO-SY =      299201.3053                STO-SY =        1750.4423     STORAGE                          
                 WEL =           0.0000                   WEL =           0.0000     WEL-1                            
                RCHA =    33113417.3680                  RCHA =        2137.5000     RCH-1                            
                 CHD =           0.0000                   CHD =           0.0000     CHD-FROM-IBOUND                  

            TOTAL IN =    40321509.8186              TOTAL IN =       44209.4758

          OUT:                                     OUT:
          ----                                     ----
              STO-SS =    22323953.4994                STO-SS =           0.0000     STORAGE                          
              STO-SY =      929662.4369                STO-SY =           0.0000     STORAGE                          
                 WEL =     3993144.9638                   WEL =       20000.0000     WEL-1                            
                RCHA =           0.0000                  RCHA =           0.0000     RCH-1                            
                 CHD =    13074767.3853                   CHD =       24209.4760     CHD-FROM-IBOUND                  

           TOTAL OUT =    40321528.2854             TOTAL OUT =       44209.4760

            IN - OUT =         -18.4668              IN - OUT =      -2.0918E-04

 PERCENT DISCREPANCY =          -0.00     PERCENT DISCREPANCY =          -0.00




         TIME SUMMARY AT END OF TIME STEP    6 IN STRESS PERIOD   20
                    SECONDS     MINUTES      HOURS       DAYS        YEARS
                    -----------------------------------------------------------
   TIME STEP LENGTH 4.03945E+05  6732.4      112.21      4.6753     1.28002E-02
 STRESS PERIOD TIME 1.61199E+06  26866.      447.77      18.657     5.10808E-02
         TOTAL TIME 4.88728E+07 8.14546E+05  13576.      565.66      1.5487    


end timestep


start timestep kper="20" kstp="7" mode="normal"

 UBDSV1 SAVING     FLOW-JA-FACE ON UNIT   1015 AT TIME STEP      7, STRESS PERIOD     20
 UBDSV06 SAVING              WEL IN MODEL MUMODEL          PACKAGE MUMODEL         CONNECTED TO MODEL MUMODEL          PACKAGE WEL-1            ON UNIT   1015 AT TIME STEP      7, STRESS PERIOD     20
 UBDSV06 SAVING             RCHA IN MODEL MUMODEL          PACKAGE MUMODEL         CONNECTED TO MODEL MUMODEL          PACKAGE RCH-1            ON UNIT   1015 AT TIME STEP      7, STRESS PERIOD     20

 WEL PACKAGE (WEL-1) FLOW RATES   PERIOD     20   STEP        7
 -----------------------------------------------
   NUMBER   CELLID                    RATE      
 -----------------------------------------------
     1      (1,5,5)              -20000.000     
     2      (1,11,5)              0.0000000     
     3      (1,5,5)               0.0000000     
 -----------------------------------------------




 CHD PACKAGE (CHD-FROM-IBOUND) FLOW RATES   PERIOD     20   STEP        7
 -----------------------------------------------
   NUMBER   CELLID                    RATE      
 -----------------------------------------------
     1      (1,1,1)              -1343.2938     
     2      (1,1,2)              -1343.2565     
     3      (1,1,3)              -1342.9552     
     4      (1,1,4)              -1341.2425     
     5      (1,1,5)              -1336.4235     
     6      (1,1,6)              -1341.2440     
     7      (1,1,7)              -1342.9577     
     8      (1,1,8)              -1343.2594     
     9      (1,1,9)              -1343.2964     
     10     (1,21,1)             -1343.2989     
     11     (1,21,2)             -1343.2983     
     12     (1,21,3)             -1343.2975     
     13     (1,21,4)             -1343.2969     
     14     (1,21,5)             -1343.2965     
     15     (1,21,6)             -1343.2966     
     16     (1,21,7)             -1343.2976     
     17     (1,21,8)             -1343.2995     
     18     (1,21,9)             -1343.3013     
 -----------------------------------------------




 HEAD WILL BE SAVED ON UNIT 1016 AT END OF TIME STEP    7, STRESS PERIOD   20


  VOLUME BUDGET FOR ENTIRE MODEL AT END OF TIME STEP    7, STRESS PERIOD  20
  ---------------------------------------------------------------------------------------------------

     CUMULATIVE VOLUME      L**3       RATES FOR THIS TIME STEP      L**3/T          PACKAGE NAME    
     ------------------                 ------------------------                     ----------------

           IN:                                      IN:
           ---                                      ---
              STO-SS =     7134884.1938                STO-SS =       40281.5121     STORAGE                          
              STO-SY =      309011.5467                STO-SY =        1748.5996     STORAGE                          
                 WEL =           0.0000                   WEL =           0.0000     WEL-1                            
                RCHA =    33125409.4735                  RCHA =        2137.5000     RCH-1                            
                 CHD =           0.0000                   CHD =           0.0000     CHD-FROM-IBOUND                  

            TOTAL IN =    40569305.2140              TOTAL IN =       44167.6117

          OUT:                                     OUT:
          ----                                     ----
              STO-SS =    22323953.4994                STO-SS =           0.0000     STORAGE                          
              STO-SY =      929662.4369                STO-SY =           0.0000     STORAGE                          
                 WEL =     4105351.7984                   WEL =       20000.0000     WEL-1                            
                RCHA =           0.0000                  RCHA =           0.0000     RCH-1                            
                 CHD =    13210355.9480                   CHD =       24167.6121     CHD-FROM-IBOUND                  

           TOTAL OUT =    40569323.6827             TOTAL OUT =       44167.6121

            IN - OUT =         -18.4687              IN - OUT =      -3.4575E-04

 PERCENT DISCREPANCY =          -0.00     PERCENT DISCREPANCY =          -0.00




         TIME SUMMARY AT END OF TIME STEP    7 IN STRESS PERIOD   20
                    SECONDS     MINUTES      HOURS       DAYS        YEARS
                    -----------------------------------------------------------
   TIME STEP LENGTH 4.84734E+05  8078.9      134.65      5.6103     1.53603E-02
 STRESS PERIOD TIME 2.09672E+06  34945.      582.42      24.268     6.64410E-02
         TOTAL TIME 4.93575E+07 8.22625E+05  13710.      571.27      1.5640    


end timestep


start timestep kper="20" kstp="8" mode="normal"

 UBDSV1 SAVING     FLOW-JA-FACE ON UNIT   1015 AT TIME STEP      8, STRESS PERIOD     20
 UBDSV06 SAVING              WEL IN MODEL MUMODEL          PACKAGE MUMODEL         CONNECTED TO MODEL MUMODEL          PACKAGE WEL-1            ON UNIT   1015 AT TIME STEP      8, STRESS PERIOD     20
 UBDSV06 SAVING             RCHA IN MODEL MUMODEL          PACKAGE MUMODEL         CONNECTED TO MODEL MUMODEL          PACKAGE RCH-1            ON UNIT   1015 AT TIME STEP      8, STRESS PERIOD     20

 WEL PACKAGE (WEL-1) FLOW RATES   PERIOD     20   STEP        8
 -----------------------------------------------
   NUMBER   CELLID                    RATE      
 -----------------------------------------------
     1      (1,5,5)              -20000.000     
     2      (1,11,5)              0.0000000     
     3      (1,5,5)               0.0000000     
 -----------------------------------------------




 CHD PACKAGE (CHD-FROM-IBOUND) FLOW RATES   PERIOD     20   STEP        8
 -----------------------------------------------
   NUMBER   CELLID                    RATE      
 -----------------------------------------------
     1      (1,1,1)              -1340.6148     
     2      (1,1,2)              -1340.5707     
     3      (1,1,3)              -1340.2224     
     4      (1,1,4)              -1338.3003     
     5      (1,1,5)              -1333.0607     
     6      (1,1,6)              -1338.3018     
     7      (1,1,7)              -1340.2249     
     8      (1,1,8)              -1340.5735     
     9      (1,1,9)              -1340.6174     
     10     (1,21,1)             -1340.6208     
     11     (1,21,2)             -1340.6202     
     12     (1,21,3)             -1340.6194     
     13     (1,21,4)             -1340.6188     
     14     (1,21,5)             -1340.6185     
     15     (1,21,6)             -1340.6186     
     16     (1,21,7)             -1340.6196     
     17     (1,21,8)             -1340.6215     
     18     (1,21,9)             -1340.6233     
 -----------------------------------------------




 HEAD WILL BE SAVED ON UNIT 1016 AT END OF TIME STEP    8, STRESS PERIOD   20


  VOLUME BUDGET FOR ENTIRE MODEL AT END OF TIME STEP    8, STRESS PERIOD  20
  ---------------------------------------------------------------------------------------------------

     CUMULATIVE VOLUME      L**3       RATES FOR THIS TIME STEP      L**3/T          PACKAGE NAME    
     ------------------                 ------------------------                     ----------------

           IN:                                      IN:
           ---                                      ---
              STO-SS =     7405757.0287                STO-SS =       40234.1556     STORAGE                          
              STO-SY =      320769.1018                STO-SY =        1746.4110     STORAGE                          
                 WEL =           0.0000                   WEL =           0.0000     WEL-1                            
                RCHA =    33139800.0000                  RCHA =        2137.5000     RCH-1                            
                 CHD =           0.0000                   CHD =           0.0000     CHD-FROM-IBOUND                  

            TOTAL IN =    40866326.1305              TOTAL IN =       44118.0666

          OUT:                                     OUT:
          ----                                     ----
              STO-SS =    22323953.4994                STO-SS =           0.0000     STORAGE                          
              STO-SY =      929662.4369                STO-SY =           0.0000     STORAGE                          
                 WEL =     4240000.0000                   WEL =       20000.0000     WEL-1                            
                RCHA =           0.0000                  RCHA =           0.0000     RCH-1                            
                 CHD =    13372728.6668                   CHD =       24118.0672     CHD-FROM-IBOUND                  

           TOTAL OUT =    40866344.6031             TOTAL OUT =       44118.0672

            IN - OUT =         -18.4725              IN - OUT =      -5.6799E-04

 PERCENT DISCREPANCY =          -0.00     PERCENT DISCREPANCY =          -0.00




         TIME SUMMARY AT END OF TIME STEP    8 IN STRESS PERIOD   20
                    SECONDS     MINUTES      HOURS       DAYS        YEARS
                    -----------------------------------------------------------
   TIME STEP LENGTH 5.81680E+05  9694.7      161.58      6.7324     1.84323E-02
 STRESS PERIOD TIME 2.67840E+06  44640.      744.00      31.000     8.48734E-02
         TOTAL TIME 4.99392E+07 8.32320E+05  13872.      578.00      1.5825    


end timestep


start timestep kper="21" kstp="1" mode="normal"


 OUTPUT CONTROL FOR STRESS PERIOD 21 IS REPEATED USING SETTINGS FROM A PREVIOUS STRESS PERIOD.


 STRESS PERIOD 21 IS TRANSIENT


 REUSING WELS FROM LAST STRESS PERIOD

 REUSING RCHS FROM LAST STRESS PERIOD

 REUSING CHDS FROM LAST STRESS PERIOD
 UBDSV1 SAVING     FLOW-JA-FACE ON UNIT   1015 AT TIME STEP      1, STRESS PERIOD     21
 UBDSV06 SAVING              WEL IN MODEL MUMODEL          PACKAGE MUMODEL         CONNECTED TO MODEL MUMODEL          PACKAGE WEL-1            ON UNIT   1015 AT TIME STEP      1, STRESS PERIOD     21
 UBDSV06 SAVING             RCHA IN MODEL MUMODEL          PACKAGE MUMODEL         CONNECTED TO MODEL MUMODEL          PACKAGE RCH-1            ON UNIT   1015 AT TIME STEP      1, STRESS PERIOD     21

 WEL PACKAGE (WEL-1) FLOW RATES   PERIOD     21   STEP        1
 -----------------------------------------------
   NUMBER   CELLID                    RATE      
 -----------------------------------------------
     1      (1,5,5)              -20000.000     
     2      (1,11,5)              0.0000000     
     3      (1,5,5)               0.0000000     
 -----------------------------------------------




 CHD PACKAGE (CHD-FROM-IBOUND) FLOW RATES   PERIOD     21   STEP        1
 -----------------------------------------------
   NUMBER   CELLID                    RATE      
 -----------------------------------------------
     1      (1,1,1)              -1339.8705     
     2      (1,1,2)              -1339.8244     
     3      (1,1,3)              -1339.4626     
     4      (1,1,4)              -1337.4809     
     5      (1,1,5)              -1332.1226     
     6      (1,1,6)              -1337.4824     
     7      (1,1,7)              -1339.4651     
     8      (1,1,8)              -1339.8272     
     9      (1,1,9)              -1339.8730     
     10     (1,21,1)             -1339.8768     
     11     (1,21,2)             -1339.8761     
     12     (1,21,3)             -1339.8754     
     13     (1,21,4)             -1339.8748     
     14     (1,21,5)             -1339.8744     
     15     (1,21,6)             -1339.8746     
     16     (1,21,7)             -1339.8756     
     17     (1,21,8)             -1339.8774     
     18     (1,21,9)             -1339.8792     
 -----------------------------------------------




 HEAD WILL BE SAVED ON UNIT 1016 AT END OF TIME STEP    1, STRESS PERIOD   21


  VOLUME BUDGET FOR ENTIRE MODEL AT END OF TIME STEP    1, STRESS PERIOD  21
  ---------------------------------------------------------------------------------------------------

     CUMULATIVE VOLUME      L**3       RATES FOR THIS TIME STEP      L**3/T          PACKAGE NAME    
     ------------------                 ------------------------                     ----------------

           IN:                                      IN:
           ---                                      ---
              STO-SS =     7481326.9191                STO-SS =       40220.4526     STORAGE                          
              STO-SY =      324050.2870                STO-SY =        1746.3404     STORAGE                          
                 WEL =           0.0000                   WEL =           0.0000     WEL-1                            
                RCHA =    33143816.1319                  RCHA =        2137.5000     RCH-1                            
                 CHD =           0.0000                   CHD =           0.0000     CHD-FROM-IBOUND                  

            TOTAL IN =    40949193.3380              TOTAL IN =       44104.2930

          OUT:                                     OUT:
          ----                                     ----
              STO-SS =    22323953.4994                STO-SS =           0.0000     STORAGE                          
              STO-SY =      929662.4369                STO-SY =           0.0000     STORAGE                          
                 WEL =     4277577.8419                   WEL =       20000.0000     WEL-1                            
                RCHA =           0.0000                  RCHA =           0.0000     RCH-1                            
                 CHD =    13418018.0325                   CHD =       24104.2931     CHD-FROM-IBOUND                  

           TOTAL OUT =    40949211.8107             TOTAL OUT =       44104.2931

            IN - OUT =         -18.4728              IN - OUT =      -1.1588E-04

 PERCENT DISCREPANCY =          -0.00     PERCENT DISCREPANCY =          -0.00




         TIME SUMMARY AT END OF TIME STEP    1 IN STRESS PERIOD   21
                    SECONDS     MINUTES      HOURS       DAYS        YEARS
                    -----------------------------------------------------------
   TIME STEP LENGTH 1.62336E+05  2705.6      45.093      1.8789     5.14413E-03
 STRESS PERIOD TIME 1.62336E+05  2705.6      45.093      1.8789     5.14413E-03
         TOTAL TIME 5.01015E+07 8.35026E+05  13917.      579.88      1.5876    


end timestep


start timestep kper="21" kstp="2" mode="normal"

 UBDSV1 SAVING     FLOW-JA-FACE ON UNIT   1015 AT TIME STEP      2, STRESS PERIOD     21
 UBDSV06 SAVING              WEL IN MODEL MUMODEL          PACKAGE MUMODEL         CONNECTED TO MODEL MUMODEL          PACKAGE WEL-1            ON UNIT   1015 AT TIME STEP      2, STRESS PERIOD     21
 UBDSV06 SAVING             RCHA IN MODEL MUMODEL          PACKAGE MUMODEL         CONNECTED TO MODEL MUMODEL          PACKAGE RCH-1            ON UNIT   1015 AT TIME STEP      2, STRESS PERIOD     21

 WEL PACKAGE (WEL-1) FLOW RATES   PERIOD     21   STEP        2
 -----------------------------------------------
   NUMBER   CELLID                    RATE      
 -----------------------------------------------
     1      (1,5,5)              -20000.000     
     2      (1,11,5)              0.0000000     
     3      (1,5,5)               0.0000000     
 -----------------------------------------------




 CHD PACKAGE (CHD-FROM-IBOUND) FLOW RATES   PERIOD     21   STEP        2
 -----------------------------------------------
   NUMBER   CELLID                    RATE      
 -----------------------------------------------
     1      (1,1,1)              -1338.9821     
     2      (1,1,2)              -1338.9335     
     3      (1,1,3)              -1338.5550     
     4      (1,1,4)              -1336.5001     
     5      (1,1,5)              -1330.9976     
     6      (1,1,6)              -1336.5016     
     7      (1,1,7)              -1338.5576     
     8      (1,1,8)              -1338.9363     
     9      (1,1,9)              -1338.9847     
     10     (1,21,1)             -1338.9887     
     11     (1,21,2)             -1338.9881     
     12     (1,21,3)             -1338.9874     
     13     (1,21,4)             -1338.9868     
     14     (1,21,5)             -1338.9864     
     15     (1,21,6)             -1338.9866     
     16     (1,21,7)             -1338.9876     
     17     (1,21,8)             -1338.9894     
     18     (1,21,9)             -1338.9912     
 -----------------------------------------------




 HEAD WILL BE SAVED ON UNIT 1016 AT END OF TIME STEP    2, STRESS PERIOD   21


  VOLUME BUDGET FOR ENTIRE MODEL AT END OF TIME STEP    2, STRESS PERIOD  21
  ---------------------------------------------------------------------------------------------------

     CUMULATIVE VOLUME      L**3       RATES FOR THIS TIME STEP      L**3/T          PACKAGE NAME    
     ------------------                 ------------------------                     ----------------

           IN:                                      IN:
           ---                                      ---
              STO-SS =     7571975.3581                STO-SS =       40204.7388     STORAGE                          
              STO-SY =      327986.0434                STO-SY =        1745.6016     STORAGE                          
                 WEL =           0.0000                   WEL =           0.0000     WEL-1                            
                RCHA =    33148635.4901                  RCHA =        2137.5000     RCH-1                            
                 CHD =           0.0000                   CHD =           0.0000     CHD-FROM-IBOUND                  

            TOTAL IN =    41048596.8916              TOTAL IN =       44087.8404

          OUT:                                     OUT:
          ----                                     ----
              STO-SS =    22323953.4994                STO-SS =           0.0000     STORAGE                          
              STO-SY =      929662.4369                STO-SY =           0.0000     STORAGE                          
                 WEL =     4322671.2522                   WEL =       20000.0000     WEL-1                            
                RCHA =           0.0000                  RCHA =           0.0000     RCH-1                            
                 CHD =    13472328.1764                   CHD =       24087.8406     CHD-FROM-IBOUND                  

           TOTAL OUT =    41048615.3649             TOTAL OUT =       44087.8406

            IN - OUT =         -18.4732              IN - OUT =      -2.0351E-04

 PERCENT DISCREPANCY =          -0.00     PERCENT DISCREPANCY =          -0.00




         TIME SUMMARY AT END OF TIME STEP    2 IN STRESS PERIOD   21
                    SECONDS     MINUTES      HOURS       DAYS        YEARS
                    -----------------------------------------------------------
   TIME STEP LENGTH 1.94804E+05  3246.7      54.112      2.2547     6.17295E-03
 STRESS PERIOD TIME 3.57140E+05  5952.3      99.206      4.1336     1.13171E-02
         TOTAL TIME 5.02963E+07 8.38272E+05  13971.      582.13      1.5938    


end timestep


start timestep kper="21" kstp="3" mode="normal"

 UBDSV1 SAVING     FLOW-JA-FACE ON UNIT   1015 AT TIME STEP      3, STRESS PERIOD     21
 UBDSV06 SAVING              WEL IN MODEL MUMODEL          PACKAGE MUMODEL         CONNECTED TO MODEL MUMODEL          PACKAGE WEL-1            ON UNIT   1015 AT TIME STEP      3, STRESS PERIOD     21
 UBDSV06 SAVING             RCHA IN MODEL MUMODEL          PACKAGE MUMODEL         CONNECTED TO MODEL MUMODEL          PACKAGE RCH-1            ON UNIT   1015 AT TIME STEP      3, STRESS PERIOD     21

 WEL PACKAGE (WEL-1) FLOW RATES   PERIOD     21   STEP        3
 -----------------------------------------------
   NUMBER   CELLID                    RATE      
 -----------------------------------------------
     1      (1,5,5)              -20000.000     
     2      (1,11,5)              0.0000000     
     3      (1,5,5)               0.0000000     
 -----------------------------------------------




 CHD PACKAGE (CHD-FROM-IBOUND) FLOW RATES   PERIOD     21   STEP        3
 -----------------------------------------------
   NUMBER   CELLID                    RATE      
 -----------------------------------------------
     1      (1,1,1)              -1337.9229     
     2      (1,1,2)              -1337.8711     
     3      (1,1,3)              -1337.4718     
     4      (1,1,4)              -1335.3265     
     5      (1,1,5)              -1329.6484     
     6      (1,1,6)              -1335.3279     
     7      (1,1,7)              -1337.4743     
     8      (1,1,8)              -1337.8739     
     9      (1,1,9)              -1337.9254     
     10     (1,21,1)             -1337.9299     
     11     (1,21,2)             -1337.9293     
     12     (1,21,3)             -1337.9286     
     13     (1,21,4)             -1337.9280     
     14     (1,21,5)             -1337.9276     
     15     (1,21,6)             -1337.9278     
     16     (1,21,7)             -1337.9288     
     17     (1,21,8)             -1337.9306     
     18     (1,21,9)             -1337.9324     
 -----------------------------------------------




 HEAD WILL BE SAVED ON UNIT 1016 AT END OF TIME STEP    3, STRESS PERIOD   21


  VOLUME BUDGET FOR ENTIRE MODEL AT END OF TIME STEP    3, STRESS PERIOD  21
  ---------------------------------------------------------------------------------------------------

     CUMULATIVE VOLUME      L**3       RATES FOR THIS TIME STEP      L**3/T          PACKAGE NAME    
     ------------------                 ------------------------                     ----------------

           IN:                                      IN:
           ---                                      ---
              STO-SS =     7680702.7472                STO-SS =       40185.9859     STORAGE                          
              STO-SY =      332706.5635                STO-SY =        1744.7191     STORAGE                          
                 WEL =           0.0000                   WEL =           0.0000     WEL-1                            
                RCHA =    33154418.7199                  RCHA =        2137.5000     RCH-1                            
                 CHD =           0.0000                   CHD =           0.0000     CHD-FROM-IBOUND                  

            TOTAL IN =    41167828.0306              TOTAL IN =       44068.2050

          OUT:                                     OUT:
          ----                                     ----
              STO-SS =    22323953.4994                STO-SS =           0.0000     STORAGE                          
              STO-SY =      929662.4369                STO-SY =           0.0000     STORAGE                          
                 WEL =     4376783.3445                   WEL =       20000.0000     WEL-1                            
                RCHA =           0.0000                  RCHA =           0.0000     RCH-1                            
                 CHD =    13537447.2240                   CHD =       24068.2054     CHD-FROM-IBOUND                  

           TOTAL OUT =    41167846.5048             TOTAL OUT =       44068.2054

            IN - OUT =         -18.4741              IN - OUT =      -3.4030E-04

 PERCENT DISCREPANCY =          -0.00     PERCENT DISCREPANCY =          -0.00




         TIME SUMMARY AT END OF TIME STEP    3 IN STRESS PERIOD   21
                    SECONDS     MINUTES      HOURS       DAYS        YEARS
                    -----------------------------------------------------------
   TIME STEP LENGTH 2.33764E+05  3896.1      64.935      2.7056     7.40754E-03
 STRESS PERIOD TIME 5.90904E+05  9848.4      164.14      6.8392     1.87246E-02
         TOTAL TIME 5.05301E+07 8.42168E+05  14036.      584.84      1.6012    


end timestep


start timestep kper="21" kstp="4" mode="normal"

 UBDSV1 SAVING     FLOW-JA-FACE ON UNIT   1015 AT TIME STEP      4, STRESS PERIOD     21
 UBDSV06 SAVING              WEL IN MODEL MUMODEL          PACKAGE MUMODEL         CONNECTED TO MODEL MUMODEL          PACKAGE WEL-1            ON UNIT   1015 AT TIME STEP      4, STRESS PERIOD     21
 UBDSV06 SAVING             RCHA IN MODEL MUMODEL          PACKAGE MUMODEL         CONNECTED TO MODEL MUMODEL          PACKAGE RCH-1            ON UNIT   1015 AT TIME STEP      4, STRESS PERIOD     21

 WEL PACKAGE (WEL-1) FLOW RATES   PERIOD     21   STEP        4
 -----------------------------------------------
   NUMBER   CELLID                    RATE      
 -----------------------------------------------
     1      (1,5,5)              -20000.000     
     2      (1,11,5)              0.0000000     
     3      (1,5,5)               0.0000000     
 -----------------------------------------------




 CHD PACKAGE (CHD-FROM-IBOUND) FLOW RATES   PERIOD     21   STEP        4
 -----------------------------------------------
   NUMBER   CELLID                    RATE      
 -----------------------------------------------
     1      (1,1,1)              -1336.6615     
     2      (1,1,2)              -1336.6058     
     3      (1,1,3)              -1336.1802     
     4      (1,1,4)              -1333.9227     
     5      (1,1,5)              -1328.0303     
     6      (1,1,6)              -1333.9242     
     7      (1,1,7)              -1336.1827     
     8      (1,1,8)              -1336.6085     
     9      (1,1,9)              -1336.6640     
     10     (1,21,1)             -1336.6691     
     11     (1,21,2)             -1336.6685     
     12     (1,21,3)             -1336.6678     
     13     (1,21,4)             -1336.6672     
     14     (1,21,5)             -1336.6669     
     15     (1,21,6)             -1336.6670     
     16     (1,21,7)             -1336.6680     
     17     (1,21,8)             -1336.6699     
     18     (1,21,9)             -1336.6716     
 -----------------------------------------------




 HEAD WILL BE SAVED ON UNIT 1016 AT END OF TIME STEP    4, STRESS PERIOD   21


  VOLUME BUDGET FOR ENTIRE MODEL AT END OF TIME STEP    4, STRESS PERIOD  21
  ---------------------------------------------------------------------------------------------------

     CUMULATIVE VOLUME      L**3       RATES FOR THIS TIME STEP      L**3/T          PACKAGE NAME    
     ------------------                 ------------------------                     ----------------

           IN:                                      IN:
           ---                                      ---
              STO-SS =     7811103.0296                STO-SS =       40163.6297     STORAGE                          
              STO-SY =      338367.7689                STO-SY =        1743.6661     STORAGE                          
                 WEL =           0.0000                   WEL =           0.0000     WEL-1                            
                RCHA =    33161358.5958                  RCHA =        2137.5000     RCH-1                            
                 CHD =           0.0000                   CHD =           0.0000     CHD-FROM-IBOUND                  

            TOTAL IN =    41310829.3942              TOTAL IN =       44044.7959

          OUT:                                     OUT:
          ----                                     ----
              STO-SS =    22323953.4994                STO-SS =           0.0000     STORAGE                          
              STO-SY =      929662.4369                STO-SY =           0.0000     STORAGE                          
                 WEL =     4441717.8553                   WEL =       20000.0000     WEL-1                            
                RCHA =           0.0000                  RCHA =           0.0000     RCH-1                            
                 CHD =    13615514.0770                   CHD =       24044.7959     CHD-FROM-IBOUND                  

           TOTAL OUT =    41310847.8686             TOTAL OUT =       44044.7959

            IN - OUT =         -18.4744              IN - OUT =      -6.7645E-05

 PERCENT DISCREPANCY =          -0.00     PERCENT DISCREPANCY =          -0.00




         TIME SUMMARY AT END OF TIME STEP    4 IN STRESS PERIOD   21
                    SECONDS     MINUTES      HOURS       DAYS        YEARS
                    -----------------------------------------------------------
   TIME STEP LENGTH 2.80517E+05  4675.3      77.921      3.2467     8.88905E-03
 STRESS PERIOD TIME 8.71421E+05  14524.      242.06      10.086     2.76137E-02
         TOTAL TIME 5.08106E+07 8.46844E+05  14114.      588.09      1.6101    


end timestep


start timestep kper="21" kstp="5" mode="normal"

 UBDSV1 SAVING     FLOW-JA-FACE ON UNIT   1015 AT TIME STEP      5, STRESS PERIOD     21
 UBDSV06 SAVING              WEL IN MODEL MUMODEL          PACKAGE MUMODEL         CONNECTED TO MODEL MUMODEL          PACKAGE WEL-1            ON UNIT   1015 AT TIME STEP      5, STRESS PERIOD     21
 UBDSV06 SAVING             RCHA IN MODEL MUMODEL          PACKAGE MUMODEL         CONNECTED TO MODEL MUMODEL          PACKAGE RCH-1            ON UNIT   1015 AT TIME STEP      5, STRESS PERIOD     21

 WEL PACKAGE (WEL-1) FLOW RATES   PERIOD     21   STEP        5
 -----------------------------------------------
   NUMBER   CELLID                    RATE      
 -----------------------------------------------
     1      (1,5,5)              -20000.000     
     2      (1,11,5)              0.0000000     
     3      (1,5,5)               0.0000000     
 -----------------------------------------------




 CHD PACKAGE (CHD-FROM-IBOUND) FLOW RATES   PERIOD     21   STEP        5
 -----------------------------------------------
   NUMBER   CELLID                    RATE      
 -----------------------------------------------
     1      (1,1,1)              -1335.1616     
     2      (1,1,2)              -1335.1007     
     3      (1,1,3)              -1334.6419     
     4      (1,1,4)              -1332.2446     
     5      (1,1,5)              -1326.0898     
     6      (1,1,6)              -1332.2461     
     7      (1,1,7)              -1334.6443     
     8      (1,1,8)              -1335.1034     
     9      (1,1,9)              -1335.1641     
     10     (1,21,1)             -1335.1699     
     11     (1,21,2)             -1335.1694     
     12     (1,21,3)             -1335.1686     
     13     (1,21,4)             -1335.1681     
     14     (1,21,5)             -1335.1677     
     15     (1,21,6)             -1335.1679     
     16     (1,21,7)             -1335.1689     
     17     (1,21,8)             -1335.1707     
     18     (1,21,9)             -1335.1724     
 -----------------------------------------------




 HEAD WILL BE SAVED ON UNIT 1016 AT END OF TIME STEP    5, STRESS PERIOD   21


  VOLUME BUDGET FOR ENTIRE MODEL AT END OF TIME STEP    5, STRESS PERIOD  21
  ---------------------------------------------------------------------------------------------------

     CUMULATIVE VOLUME      L**3       RATES FOR THIS TIME STEP      L**3/T          PACKAGE NAME    
     ------------------                 ------------------------                     ----------------

           IN:                                      IN:
           ---                                      ---
              STO-SS =     7967479.6521                STO-SS =       40137.0090     STORAGE                          
              STO-SY =      345156.3258                STO-SY =        1742.4111     STORAGE                          
                 WEL =           0.0000                   WEL =           0.0000     WEL-1                            
                RCHA =    33169686.4468                  RCHA =        2137.5000     RCH-1                            
                 CHD =           0.0000                   CHD =           0.0000     CHD-FROM-IBOUND                  

            TOTAL IN =    41482322.4247              TOTAL IN =       44016.9201

          OUT:                                     OUT:
          ----                                     ----
              STO-SS =    22323953.4994                STO-SS =           0.0000     STORAGE                          
              STO-SY =      929662.4369                STO-SY =           0.0000     STORAGE                          
                 WEL =     4519639.2682                   WEL =       20000.0000     WEL-1                            
                RCHA =           0.0000                  RCHA =           0.0000     RCH-1                            
                 CHD =    13709085.6949                   CHD =       24016.9202     CHD-FROM-IBOUND                  

           TOTAL OUT =    41482340.8995             TOTAL OUT =       44016.9202

            IN - OUT =         -18.4748              IN - OUT =      -1.1033E-04

 PERCENT DISCREPANCY =          -0.00     PERCENT DISCREPANCY =          -0.00




         TIME SUMMARY AT END OF TIME STEP    5 IN STRESS PERIOD   21
                    SECONDS     MINUTES      HOURS       DAYS        YEARS
                    -----------------------------------------------------------
   TIME STEP LENGTH 3.36621E+05  5610.3      93.506      3.8961     1.06669E-02
 STRESS PERIOD TIME 1.20804E+06  20134.      335.57      13.982     3.82805E-02
         TOTAL TIME 5.11472E+07 8.52454E+05  14208.      591.98      1.6208    


end timestep


start timestep kper="21" kstp="6" mode="normal"

 UBDSV1 SAVING     FLOW-JA-FACE ON UNIT   1015 AT TIME STEP      6, STRESS PERIOD     21
 UBDSV06 SAVING              WEL IN MODEL MUMODEL          PACKAGE MUMODEL         CONNECTED TO MODEL MUMODEL          PACKAGE WEL-1            ON UNIT   1015 AT TIME STEP      6, STRESS PERIOD     21
 UBDSV06 SAVING             RCHA IN MODEL MUMODEL          PACKAGE MUMODEL         CONNECTED TO MODEL MUMODEL          PACKAGE RCH-1            ON UNIT   1015 AT TIME STEP      6, STRESS PERIOD     21

 WEL PACKAGE (WEL-1) FLOW RATES   PERIOD     21   STEP        6
 -----------------------------------------------
   NUMBER   CELLID                    RATE      
 -----------------------------------------------
     1      (1,5,5)              -20000.000     
     2      (1,11,5)              0.0000000     
     3      (1,5,5)               0.0000000     
 -----------------------------------------------




 CHD PACKAGE (CHD-FROM-IBOUND) FLOW RATES   PERIOD     21   STEP        6
 -----------------------------------------------
   NUMBER   CELLID                    RATE      
 -----------------------------------------------
     1      (1,1,1)              -1333.3812     
     2      (1,1,2)              -1333.3135     
     3      (1,1,3)              -1332.8121     
     4      (1,1,4)              -1330.2394     
     5      (1,1,5)              -1323.7625     
     6      (1,1,6)              -1330.2408     
     7      (1,1,7)              -1332.8145     
     8      (1,1,8)              -1333.3162     
     9      (1,1,9)              -1333.3837     
     10     (1,21,1)             -1333.3905     
     11     (1,21,2)             -1333.3899     
     12     (1,21,3)             -1333.3892     
     13     (1,21,4)             -1333.3886     
     14     (1,21,5)             -1333.3883     
     15     (1,21,6)             -1333.3885     
     16     (1,21,7)             -1333.3895     
     17     (1,21,8)             -1333.3913     
     18     (1,21,9)             -1333.3930     
 -----------------------------------------------




 HEAD WILL BE SAVED ON UNIT 1016 AT END OF TIME STEP    6, STRESS PERIOD   21


  VOLUME BUDGET FOR ENTIRE MODEL AT END OF TIME STEP    6, STRESS PERIOD  21
  ---------------------------------------------------------------------------------------------------

     CUMULATIVE VOLUME      L**3       RATES FOR THIS TIME STEP      L**3/T          PACKAGE NAME    
     ------------------                 ------------------------                     ----------------

           IN:                                      IN:
           ---                                      ---
              STO-SS =     8154983.6070                STO-SS =       40105.3548     STORAGE                          
              STO-SY =      353295.6110                STO-SY =        1740.9175     STORAGE                          
                 WEL =           0.0000                   WEL =           0.0000     WEL-1                            
                RCHA =    33179679.8680                  RCHA =        2137.5000     RCH-1                            
                 CHD =           0.0000                   CHD =           0.0000     CHD-FROM-IBOUND                  

            TOTAL IN =    41687959.0860              TOTAL IN =       43983.7723

          OUT:                                     OUT:
          ----                                     ----
              STO-SS =    22323953.4994                STO-SS =           0.0000     STORAGE                          
              STO-SY =      929662.4369                STO-SY =           0.0000     STORAGE                          
                 WEL =     4613144.9638                   WEL =       20000.0000     WEL-1                            
                RCHA =           0.0000                  RCHA =           0.0000     RCH-1                            
                 CHD =    13821216.6615                   CHD =       23983.7725     CHD-FROM-IBOUND                  

           TOTAL OUT =    41687977.5616             TOTAL OUT =       43983.7725

            IN - OUT =         -18.4756              IN - OUT =      -1.8417E-04

 PERCENT DISCREPANCY =          -0.00     PERCENT DISCREPANCY =          -0.00




         TIME SUMMARY AT END OF TIME STEP    6 IN STRESS PERIOD   21
                    SECONDS     MINUTES      HOURS       DAYS        YEARS
                    -----------------------------------------------------------
   TIME STEP LENGTH 4.03945E+05  6732.4      112.21      4.6753     1.28002E-02
 STRESS PERIOD TIME 1.61199E+06  26866.      447.77      18.657     5.10808E-02
         TOTAL TIME 5.15512E+07 8.59186E+05  14320.      596.66      1.6336    


end timestep


start timestep kper="21" kstp="7" mode="normal"

 UBDSV1 SAVING     FLOW-JA-FACE ON UNIT   1015 AT TIME STEP      7, STRESS PERIOD     21
 UBDSV06 SAVING              WEL IN MODEL MUMODEL          PACKAGE MUMODEL         CONNECTED TO MODEL MUMODEL          PACKAGE WEL-1            ON UNIT   1015 AT TIME STEP      7, STRESS PERIOD     21
 UBDSV06 SAVING             RCHA IN MODEL MUMODEL          PACKAGE MUMODEL         CONNECTED TO MODEL MUMODEL          PACKAGE RCH-1            ON UNIT   1015 AT TIME STEP      7, STRESS PERIOD     21

 WEL PACKAGE (WEL-1) FLOW RATES   PERIOD     21   STEP        7
 -----------------------------------------------
   NUMBER   CELLID                    RATE      
 -----------------------------------------------
     1      (1,5,5)              -20000.000     
     2      (1,11,5)              0.0000000     
     3      (1,5,5)               0.0000000     
 -----------------------------------------------




 CHD PACKAGE (CHD-FROM-IBOUND) FLOW RATES   PERIOD     21   STEP        7
 -----------------------------------------------
   NUMBER   CELLID                    RATE      
 -----------------------------------------------
     1      (1,1,1)              -1331.2720     
     2      (1,1,2)              -1331.1954     
     3      (1,1,3)              -1330.6389     
     4      (1,1,4)              -1327.8444     
     5      (1,1,5)              -1320.9710     
     6      (1,1,6)              -1327.8458     
     7      (1,1,7)              -1330.6413     
     8      (1,1,8)              -1331.1981     
     9      (1,1,9)              -1331.2744     
     10     (1,21,1)             -1331.2826     
     11     (1,21,2)             -1331.2820     
     12     (1,21,3)             -1331.2813     
     13     (1,21,4)             -1331.2808     
     14     (1,21,5)             -1331.2805     
     15     (1,21,6)             -1331.2806     
     16     (1,21,7)             -1331.2816     
     17     (1,21,8)             -1331.2835     
     18     (1,21,9)             -1331.2851     
 -----------------------------------------------




 HEAD WILL BE SAVED ON UNIT 1016 AT END OF TIME STEP    7, STRESS PERIOD   21


  VOLUME BUDGET FOR ENTIRE MODEL AT END OF TIME STEP    7, STRESS PERIOD  21
  ---------------------------------------------------------------------------------------------------

     CUMULATIVE VOLUME      L**3       RATES FOR THIS TIME STEP      L**3/T          PACKAGE NAME    
     ------------------                 ------------------------                     ----------------

           IN:                                      IN:
           ---                                      ---
              STO-SS =     8379777.5241                STO-SS =       40067.7762     STORAGE                          
              STO-SY =      363052.7973                STO-SY =        1739.1430     STORAGE                          
                 WEL =           0.0000                   WEL =           0.0000     WEL-1                            
                RCHA =    33191671.9735                  RCHA =        2137.5000     RCH-1                            
                 CHD =           0.0000                   CHD =           0.0000     CHD-FROM-IBOUND                  

            TOTAL IN =    41934502.2948              TOTAL IN =       43944.4192

          OUT:                                     OUT:
          ----                                     ----
              STO-SS =    22323953.4994                STO-SS =           0.0000     STORAGE                          
              STO-SY =      929662.4369                STO-SY =           0.0000     STORAGE                          
                 WEL =     4725351.7984                   WEL =       20000.0000     WEL-1                            
                RCHA =           0.0000                  RCHA =           0.0000     RCH-1                            
                 CHD =    13955553.0375                   CHD =       23944.4195     CHD-FROM-IBOUND                  

           TOTAL OUT =    41934520.7722             TOTAL OUT =       43944.4195

            IN - OUT =         -18.4774              IN - OUT =      -3.0506E-04

 PERCENT DISCREPANCY =          -0.00     PERCENT DISCREPANCY =          -0.00




         TIME SUMMARY AT END OF TIME STEP    7 IN STRESS PERIOD   21
                    SECONDS     MINUTES      HOURS       DAYS        YEARS
                    -----------------------------------------------------------
   TIME STEP LENGTH 4.84734E+05  8078.9      134.65      5.6103     1.53603E-02
 STRESS PERIOD TIME 2.09672E+06  34945.      582.42      24.268     6.64410E-02
         TOTAL TIME 5.20359E+07 8.67265E+05  14454.      602.27      1.6489    


end timestep


start timestep kper="21" kstp="8" mode="normal"

 UBDSV1 SAVING     FLOW-JA-FACE ON UNIT   1015 AT TIME STEP      8, STRESS PERIOD     21
 UBDSV06 SAVING              WEL IN MODEL MUMODEL          PACKAGE MUMODEL         CONNECTED TO MODEL MUMODEL          PACKAGE WEL-1            ON UNIT   1015 AT TIME STEP      8, STRESS PERIOD     21
 UBDSV06 SAVING             RCHA IN MODEL MUMODEL          PACKAGE MUMODEL         CONNECTED TO MODEL MUMODEL          PACKAGE RCH-1            ON UNIT   1015 AT TIME STEP      8, STRESS PERIOD     21

 WEL PACKAGE (WEL-1) FLOW RATES   PERIOD     21   STEP        8
 -----------------------------------------------
   NUMBER   CELLID                    RATE      
 -----------------------------------------------
     1      (1,5,5)              -20000.000     
     2      (1,11,5)              0.0000000     
     3      (1,5,5)               0.0000000     
 -----------------------------------------------




 CHD PACKAGE (CHD-FROM-IBOUND) FLOW RATES   PERIOD     21   STEP        8
 -----------------------------------------------
   NUMBER   CELLID                    RATE      
 -----------------------------------------------
     1      (1,1,1)              -1328.7793     
     2      (1,1,2)              -1328.6908     
     3      (1,1,3)              -1328.0621     
     4      (1,1,4)              -1324.9851     
     5      (1,1,5)              -1317.6219     
     6      (1,1,6)              -1324.9865     
     7      (1,1,7)              -1328.0645     
     8      (1,1,8)              -1328.6934     
     9      (1,1,9)              -1328.7817     
     10     (1,21,1)             -1328.7918     
     11     (1,21,2)             -1328.7912     
     12     (1,21,3)             -1328.7905     
     13     (1,21,4)             -1328.7900     
     14     (1,21,5)             -1328.7897     
     15     (1,21,6)             -1328.7899     
     16     (1,21,7)             -1328.7909     
     17     (1,21,8)             -1328.7927     
     18     (1,21,9)             -1328.7943     
 -----------------------------------------------




 HEAD WILL BE SAVED ON UNIT 1016 AT END OF TIME STEP    8, STRESS PERIOD   21


  VOLUME BUDGET FOR ENTIRE MODEL AT END OF TIME STEP    8, STRESS PERIOD  21
  ---------------------------------------------------------------------------------------------------

     CUMULATIVE VOLUME      L**3       RATES FOR THIS TIME STEP      L**3/T          PACKAGE NAME    
     ------------------                 ------------------------                     ----------------

           IN:                                      IN:
           ---                                      ---
              STO-SS =     8649230.4332                STO-SS =       40023.2466     STORAGE                          
              STO-SY =      374747.2554                STO-SY =        1737.0389     STORAGE                          
                 WEL =           0.0000                   WEL =           0.0000     WEL-1                            
                RCHA =    33206062.5000                  RCHA =        2137.5000     RCH-1                            
                 CHD =           0.0000                   CHD =           0.0000     CHD-FROM-IBOUND                  

            TOTAL IN =    42230040.1886              TOTAL IN =       43897.7855

          OUT:                                     OUT:
          ----                                     ----
              STO-SS =    22323953.4994                STO-SS =           0.0000     STORAGE                          
              STO-SY =      929662.4369                STO-SY =           0.0000     STORAGE                          
                 WEL =     4860000.0000                   WEL =       20000.0000     WEL-1                            
                RCHA =           0.0000                  RCHA =           0.0000     RCH-1                            
                 CHD =    14116442.7330                   CHD =       23897.7860     CHD-FROM-IBOUND                  

           TOTAL OUT =    42230058.6693             TOTAL OUT =       43897.7860

            IN - OUT =         -18.4807              IN - OUT =      -5.0182E-04

 PERCENT DISCREPANCY =          -0.00     PERCENT DISCREPANCY =          -0.00




         TIME SUMMARY AT END OF TIME STEP    8 IN STRESS PERIOD   21
                    SECONDS     MINUTES      HOURS       DAYS        YEARS
                    -----------------------------------------------------------
   TIME STEP LENGTH 5.81680E+05  9694.7      161.58      6.7324     1.84323E-02
 STRESS PERIOD TIME 2.67840E+06  44640.      744.00      31.000     8.48734E-02
         TOTAL TIME 5.26176E+07 8.76960E+05  14616.      609.00      1.6674    


end timestep


start timestep kper="22" kstp="1" mode="normal"


 OUTPUT CONTROL FOR STRESS PERIOD 22 IS REPEATED USING SETTINGS FROM A PREVIOUS STRESS PERIOD.


 STRESS PERIOD 22 IS TRANSIENT


 REUSING WELS FROM LAST STRESS PERIOD

 REUSING RCHS FROM LAST STRESS PERIOD

 REUSING CHDS FROM LAST STRESS PERIOD
 UBDSV1 SAVING     FLOW-JA-FACE ON UNIT   1015 AT TIME STEP      1, STRESS PERIOD     22
 UBDSV06 SAVING              WEL IN MODEL MUMODEL          PACKAGE MUMODEL         CONNECTED TO MODEL MUMODEL          PACKAGE WEL-1            ON UNIT   1015 AT TIME STEP      1, STRESS PERIOD     22
 UBDSV06 SAVING             RCHA IN MODEL MUMODEL          PACKAGE MUMODEL         CONNECTED TO MODEL MUMODEL          PACKAGE RCH-1            ON UNIT   1015 AT TIME STEP      1, STRESS PERIOD     22

 WEL PACKAGE (WEL-1) FLOW RATES   PERIOD     22   STEP        1
 -----------------------------------------------
   NUMBER   CELLID                    RATE      
 -----------------------------------------------
     1      (1,5,5)              -20000.000     
     2      (1,11,5)              0.0000000     
     3      (1,5,5)               0.0000000     
 -----------------------------------------------




 CHD PACKAGE (CHD-FROM-IBOUND) FLOW RATES   PERIOD     22   STEP        1
 -----------------------------------------------
   NUMBER   CELLID                    RATE      
 -----------------------------------------------
     1      (1,1,1)              -1328.1088     
     2      (1,1,2)              -1328.0170     
     3      (1,1,3)              -1327.3684     
     4      (1,1,4)              -1324.2138     
     5      (1,1,5)              -1316.7174     
     6      (1,1,6)              -1324.2153     
     7      (1,1,7)              -1327.3707     
     8      (1,1,8)              -1328.0196     
     9      (1,1,9)              -1328.1112     
     10     (1,21,1)             -1328.1218     
     11     (1,21,2)             -1328.1213     
     12     (1,21,3)             -1328.1206     
     13     (1,21,4)             -1328.1200     
     14     (1,21,5)             -1328.1197     
     15     (1,21,6)             -1328.1199     
     16     (1,21,7)             -1328.1209     
     17     (1,21,8)             -1328.1227     
     18     (1,21,9)             -1328.1244     
 -----------------------------------------------




 HEAD WILL BE SAVED ON UNIT 1016 AT END OF TIME STEP    1, STRESS PERIOD   22


  VOLUME BUDGET FOR ENTIRE MODEL AT END OF TIME STEP    1, STRESS PERIOD  22
  ---------------------------------------------------------------------------------------------------

     CUMULATIVE VOLUME      L**3       RATES FOR THIS TIME STEP      L**3/T          PACKAGE NAME    
     ------------------                 ------------------------                     ----------------

           IN:                                      IN:
           ---                                      ---
              STO-SS =     8721981.3555                STO-SS =       40010.7879     STORAGE                          
              STO-SY =      377905.5134                STO-SY =        1736.9456     STORAGE                          
                 WEL =           0.0000                   WEL =           0.0000     WEL-1                            
                RCHA =    33209949.0792                  RCHA =        2137.5000     RCH-1                            
                 CHD =           0.0000                   CHD =           0.0000     CHD-FROM-IBOUND                  

            TOTAL IN =    42309835.9481              TOTAL IN =       43885.2335

          OUT:                                     OUT:
          ----                                     ----
              STO-SS =    22323953.4994                STO-SS =           0.0000     STORAGE                          
              STO-SY =      929662.4369                STO-SY =           0.0000     STORAGE                          
                 WEL =     4896365.6534                   WEL =       20000.0000     WEL-1                            
                RCHA =           0.0000                  RCHA =           0.0000     RCH-1                            
                 CHD =    14159872.8393                   CHD =       23885.2335     CHD-FROM-IBOUND                  

           TOTAL OUT =    42309854.4290             TOTAL OUT =       43885.2335

            IN - OUT =         -18.4809              IN - OUT =      -8.9784E-05

 PERCENT DISCREPANCY =          -0.00     PERCENT DISCREPANCY =          -0.00




         TIME SUMMARY AT END OF TIME STEP    1 IN STRESS PERIOD   22
                    SECONDS     MINUTES      HOURS       DAYS        YEARS
                    -----------------------------------------------------------
   TIME STEP LENGTH 1.57100E+05  2618.3      43.639      1.8183     4.97819E-03
 STRESS PERIOD TIME 1.57100E+05  2618.3      43.639      1.8183     4.97819E-03
         TOTAL TIME 5.27747E+07 8.79578E+05  14660.      610.82      1.6723    


end timestep


start timestep kper="22" kstp="2" mode="normal"

 UBDSV1 SAVING     FLOW-JA-FACE ON UNIT   1015 AT TIME STEP      2, STRESS PERIOD     22
 UBDSV06 SAVING              WEL IN MODEL MUMODEL          PACKAGE MUMODEL         CONNECTED TO MODEL MUMODEL          PACKAGE WEL-1            ON UNIT   1015 AT TIME STEP      2, STRESS PERIOD     22
 UBDSV06 SAVING             RCHA IN MODEL MUMODEL          PACKAGE MUMODEL         CONNECTED TO MODEL MUMODEL          PACKAGE RCH-1            ON UNIT   1015 AT TIME STEP      2, STRESS PERIOD     22

 WEL PACKAGE (WEL-1) FLOW RATES   PERIOD     22   STEP        2
 -----------------------------------------------
   NUMBER   CELLID                    RATE      
 -----------------------------------------------
     1      (1,5,5)              -20000.000     
     2      (1,11,5)              0.0000000     
     3      (1,5,5)               0.0000000     
 -----------------------------------------------




 CHD PACKAGE (CHD-FROM-IBOUND) FLOW RATES   PERIOD     22   STEP        2
 -----------------------------------------------
   NUMBER   CELLID                    RATE      
 -----------------------------------------------
     1      (1,1,1)              -1327.3082     
     2      (1,1,2)              -1327.2122     
     3      (1,1,3)              -1326.5391     
     4      (1,1,4)              -1323.2898     
     5      (1,1,5)              -1315.6320     
     6      (1,1,6)              -1323.2912     
     7      (1,1,7)              -1326.5414     
     8      (1,1,8)              -1327.2148     
     9      (1,1,9)              -1327.3106     
     10     (1,21,1)             -1327.3219     
     11     (1,21,2)             -1327.3213     
     12     (1,21,3)             -1327.3207     
     13     (1,21,4)             -1327.3201     
     14     (1,21,5)             -1327.3198     
     15     (1,21,6)             -1327.3200     
     16     (1,21,7)             -1327.3210     
     17     (1,21,8)             -1327.3228     
     18     (1,21,9)             -1327.3245     
 -----------------------------------------------




 HEAD WILL BE SAVED ON UNIT 1016 AT END OF TIME STEP    2, STRESS PERIOD   22


  VOLUME BUDGET FOR ENTIRE MODEL AT END OF TIME STEP    2, STRESS PERIOD  22
  ---------------------------------------------------------------------------------------------------

     CUMULATIVE VOLUME      L**3       RATES FOR THIS TIME STEP      L**3/T          PACKAGE NAME    
     ------------------                 ------------------------                     ----------------

           IN:                                      IN:
           ---                                      ---
              STO-SS =     8809251.2235                STO-SS =       39996.4709     STORAGE                          
              STO-SY =      381693.9286                STO-SY =        1736.2606     STORAGE                          
                 WEL =           0.0000                   WEL =           0.0000     WEL-1                            
                RCHA =    33214612.9743                  RCHA =        2137.5000     RCH-1                            
                 CHD =           0.0000                   CHD =           0.0000     CHD-FROM-IBOUND                  

            TOTAL IN =    42405558.1264              TOTAL IN =       43870.2316

          OUT:                                     OUT:
          ----                                     ----
              STO-SS =    22323953.4994                STO-SS =           0.0000     STORAGE                          
              STO-SY =      929662.4369                STO-SY =           0.0000     STORAGE                          
                 WEL =     4940004.4376                   WEL =       20000.0000     WEL-1                            
                RCHA =           0.0000                  RCHA =           0.0000     RCH-1                            
                 CHD =    14211956.2337                   CHD =       23870.2317     CHD-FROM-IBOUND                  

           TOTAL OUT =    42405576.6076             TOTAL OUT =       43870.2317

            IN - OUT =         -18.4812              IN - OUT =      -1.5779E-04

 PERCENT DISCREPANCY =          -0.00     PERCENT DISCREPANCY =          -0.00




         TIME SUMMARY AT END OF TIME STEP    2 IN STRESS PERIOD   22
                    SECONDS     MINUTES      HOURS       DAYS        YEARS
                    -----------------------------------------------------------
   TIME STEP LENGTH 1.88520E+05  3142.0      52.367      2.1819     5.97382E-03
 STRESS PERIOD TIME 3.45619E+05  5760.3      96.005      4.0002     1.09520E-02
         TOTAL TIME 5.29632E+07 8.82720E+05  14712.      613.00      1.6783    


end timestep


start timestep kper="22" kstp="3" mode="normal"

 UBDSV1 SAVING     FLOW-JA-FACE ON UNIT   1015 AT TIME STEP      3, STRESS PERIOD     22
 UBDSV06 SAVING              WEL IN MODEL MUMODEL          PACKAGE MUMODEL         CONNECTED TO MODEL MUMODEL          PACKAGE WEL-1            ON UNIT   1015 AT TIME STEP      3, STRESS PERIOD     22
 UBDSV06 SAVING             RCHA IN MODEL MUMODEL          PACKAGE MUMODEL         CONNECTED TO MODEL MUMODEL          PACKAGE RCH-1            ON UNIT   1015 AT TIME STEP      3, STRESS PERIOD     22

 WEL PACKAGE (WEL-1) FLOW RATES   PERIOD     22   STEP        3
 -----------------------------------------------
   NUMBER   CELLID                    RATE      
 -----------------------------------------------
     1      (1,5,5)              -20000.000     
     2      (1,11,5)              0.0000000     
     3      (1,5,5)               0.0000000     
 -----------------------------------------------




 CHD PACKAGE (CHD-FROM-IBOUND) FLOW RATES   PERIOD     22   STEP        3
 -----------------------------------------------
   NUMBER   CELLID                    RATE      
 -----------------------------------------------
     1      (1,1,1)              -1326.3532     
     2      (1,1,2)              -1326.2520     
     3      (1,1,3)              -1325.5484     
     4      (1,1,4)              -1322.1830     
     5      (1,1,5)              -1314.3295     
     6      (1,1,6)              -1322.1844     
     7      (1,1,7)              -1325.5508     
     8      (1,1,8)              -1326.2546     
     9      (1,1,9)              -1326.3556     
     10     (1,21,1)             -1326.3677     
     11     (1,21,2)             -1326.3671     
     12     (1,21,3)             -1326.3665     
     13     (1,21,4)             -1326.3659     
     14     (1,21,5)             -1326.3656     
     15     (1,21,6)             -1326.3658     
     16     (1,21,7)             -1326.3668     
     17     (1,21,8)             -1326.3686     
     18     (1,21,9)             -1326.3703     
 -----------------------------------------------




 HEAD WILL BE SAVED ON UNIT 1016 AT END OF TIME STEP    3, STRESS PERIOD   22


  VOLUME BUDGET FOR ENTIRE MODEL AT END OF TIME STEP    3, STRESS PERIOD  22
  ---------------------------------------------------------------------------------------------------

     CUMULATIVE VOLUME      L**3       RATES FOR THIS TIME STEP      L**3/T          PACKAGE NAME    
     ------------------                 ------------------------                     ----------------

           IN:                                      IN:
           ---                                      ---
              STO-SS =     8913930.2964                STO-SS =       39979.3727     STORAGE                          
              STO-SY =      386237.8854                STO-SY =        1735.4428     STORAGE                          
                 WEL =           0.0000                   WEL =           0.0000     WEL-1                            
                RCHA =    33220209.6483                  RCHA =        2137.5000     RCH-1                            
                 CHD =           0.0000                   CHD =           0.0000     CHD-FROM-IBOUND                  

            TOTAL IN =    42520377.8302              TOTAL IN =       43852.3155

          OUT:                                     OUT:
          ----                                     ----
              STO-SS =    22323953.4994                STO-SS =           0.0000     STORAGE                          
              STO-SY =      929662.4369                STO-SY =           0.0000     STORAGE                          
                 WEL =     4992370.9785                   WEL =       20000.0000     WEL-1                            
                RCHA =           0.0000                  RCHA =           0.0000     RCH-1                            
                 CHD =    14274409.3973                   CHD =       23852.3158     CHD-FROM-IBOUND                  

           TOTAL OUT =    42520396.3122             TOTAL OUT =       43852.3158

            IN - OUT =         -18.4820              IN - OUT =      -2.7206E-04

 PERCENT DISCREPANCY =          -0.00     PERCENT DISCREPANCY =          -0.00




         TIME SUMMARY AT END OF TIME STEP    3 IN STRESS PERIOD   22
                    SECONDS     MINUTES      HOURS       DAYS        YEARS
                    -----------------------------------------------------------
   TIME STEP LENGTH 2.26223E+05  3770.4      62.840      2.6183     7.16859E-03
 STRESS PERIOD TIME 5.71843E+05  9530.7      158.85      6.6185     1.81206E-02
         TOTAL TIME 5.31894E+07 8.86491E+05  14775.      615.62      1.6855    


end timestep


start timestep kper="22" kstp="4" mode="normal"

 UBDSV1 SAVING     FLOW-JA-FACE ON UNIT   1015 AT TIME STEP      4, STRESS PERIOD     22
 UBDSV06 SAVING              WEL IN MODEL MUMODEL          PACKAGE MUMODEL         CONNECTED TO MODEL MUMODEL          PACKAGE WEL-1            ON UNIT   1015 AT TIME STEP      4, STRESS PERIOD     22
 UBDSV06 SAVING             RCHA IN MODEL MUMODEL          PACKAGE MUMODEL         CONNECTED TO MODEL MUMODEL          PACKAGE RCH-1            ON UNIT   1015 AT TIME STEP      4, STRESS PERIOD     22

 WEL PACKAGE (WEL-1) FLOW RATES   PERIOD     22   STEP        4
 -----------------------------------------------
   NUMBER   CELLID                    RATE      
 -----------------------------------------------
     1      (1,5,5)              -20000.000     
     2      (1,11,5)              0.0000000     
     3      (1,5,5)               0.0000000     
 -----------------------------------------------




 CHD PACKAGE (CHD-FROM-IBOUND) FLOW RATES   PERIOD     22   STEP        4
 -----------------------------------------------
   NUMBER   CELLID                    RATE      
 -----------------------------------------------
     1      (1,1,1)              -1325.2152     
     2      (1,1,2)              -1325.1075     
     3      (1,1,3)              -1324.3660     
     4      (1,1,4)              -1320.8575     
     5      (1,1,5)              -1312.7663     
     6      (1,1,6)              -1320.8589     
     7      (1,1,7)              -1324.3683     
     8      (1,1,8)              -1325.1100     
     9      (1,1,9)              -1325.2175     
     10     (1,21,1)             -1325.2307     
     11     (1,21,2)             -1325.2302     
     12     (1,21,3)             -1325.2295     
     13     (1,21,4)             -1325.2290     
     14     (1,21,5)             -1325.2287     
     15     (1,21,6)             -1325.2289     
     16     (1,21,7)             -1325.2299     
     17     (1,21,8)             -1325.2317     
     18     (1,21,9)             -1325.2333     
 -----------------------------------------------




 HEAD WILL BE SAVED ON UNIT 1016 AT END OF TIME STEP    4, STRESS PERIOD   22


  VOLUME BUDGET FOR ENTIRE MODEL AT END OF TIME STEP    4, STRESS PERIOD  22
  ---------------------------------------------------------------------------------------------------

     CUMULATIVE VOLUME      L**3       RATES FOR THIS TIME STEP      L**3/T          PACKAGE NAME    
     ------------------                 ------------------------                     ----------------

           IN:                                      IN:
           ---                                      ---
              STO-SS =     9039481.0837                STO-SS =       39958.9716     STORAGE                          
              STO-SY =      391687.5685                STO-SY =        1734.4673     STORAGE                          
                 WEL =           0.0000                   WEL =           0.0000     WEL-1                            
                RCHA =    33226925.6572                  RCHA =        2137.5000     RCH-1                            
                 CHD =           0.0000                   CHD =           0.0000     CHD-FROM-IBOUND                  

            TOTAL IN =    42658094.3094              TOTAL IN =       43830.9388

          OUT:                                     OUT:
          ----                                     ----
              STO-SS =    22323953.4994                STO-SS =           0.0000     STORAGE                          
              STO-SY =      929662.4369                STO-SY =           0.0000     STORAGE                          
                 WEL =     5055210.8277                   WEL =       20000.0000     WEL-1                            
                RCHA =           0.0000                  RCHA =           0.0000     RCH-1                            
                 CHD =    14349286.0275                   CHD =       23830.9389     CHD-FROM-IBOUND                  

           TOTAL OUT =    42658112.7915             TOTAL OUT =       43830.9389

            IN - OUT =         -18.4821              IN - OUT =      -5.2664E-05

 PERCENT DISCREPANCY =          -0.00     PERCENT DISCREPANCY =          -0.00




         TIME SUMMARY AT END OF TIME STEP    4 IN STRESS PERIOD   22
                    SECONDS     MINUTES      HOURS       DAYS        YEARS
                    -----------------------------------------------------------
   TIME STEP LENGTH 2.71468E+05  4524.5      75.408      3.1420     8.60231E-03
 STRESS PERIOD TIME 8.43311E+05  14055.      234.25      9.7605     2.67229E-02
         TOTAL TIME 5.34609E+07 8.91015E+05  14850.      618.76      1.6941    


end timestep


start timestep kper="22" kstp="5" mode="normal"

 UBDSV1 SAVING     FLOW-JA-FACE ON UNIT   1015 AT TIME STEP      5, STRESS PERIOD     22
 UBDSV06 SAVING              WEL IN MODEL MUMODEL          PACKAGE MUMODEL         CONNECTED TO MODEL MUMODEL          PACKAGE WEL-1            ON UNIT   1015 AT TIME STEP      5, STRESS PERIOD     22
 UBDSV06 SAVING             RCHA IN MODEL MUMODEL          PACKAGE MUMODEL         CONNECTED TO MODEL MUMODEL          PACKAGE RCH-1            ON UNIT   1015 AT TIME STEP      5, STRESS PERIOD     22

 WEL PACKAGE (WEL-1) FLOW RATES   PERIOD     22   STEP        5
 -----------------------------------------------
   NUMBER   CELLID                    RATE      
 -----------------------------------------------
     1      (1,5,5)              -20000.000     
     2      (1,11,5)              0.0000000     
     3      (1,5,5)               0.0000000     
 -----------------------------------------------




 CHD PACKAGE (CHD-FROM-IBOUND) FLOW RATES   PERIOD     22   STEP        5
 -----------------------------------------------
   NUMBER   CELLID                    RATE      
 -----------------------------------------------
     1      (1,1,1)              -1323.8609     
     2      (1,1,2)              -1323.7449     
     3      (1,1,3)              -1322.9559     
     4      (1,1,4)              -1319.2705     
     5      (1,1,5)              -1310.8901     
     6      (1,1,6)              -1319.2719     
     7      (1,1,7)              -1322.9582     
     8      (1,1,8)              -1323.7475     
     9      (1,1,9)              -1323.8633     
     10     (1,21,1)             -1323.8778     
     11     (1,21,2)             -1323.8773     
     12     (1,21,3)             -1323.8766     
     13     (1,21,4)             -1323.8761     
     14     (1,21,5)             -1323.8758     
     15     (1,21,6)             -1323.8760     
     16     (1,21,7)             -1323.8770     
     17     (1,21,8)             -1323.8788     
     18     (1,21,9)             -1323.8804     
 -----------------------------------------------




 HEAD WILL BE SAVED ON UNIT 1016 AT END OF TIME STEP    5, STRESS PERIOD   22


  VOLUME BUDGET FOR ENTIRE MODEL AT END OF TIME STEP    5, STRESS PERIOD  22
  ---------------------------------------------------------------------------------------------------

     CUMULATIVE VOLUME      L**3       RATES FOR THIS TIME STEP      L**3/T          PACKAGE NAME    
     ------------------                 ------------------------                     ----------------

           IN:                                      IN:
           ---                                      ---
              STO-SS =     9190050.3424                STO-SS =       39934.6542     STORAGE                          
              STO-SY =      398222.8057                STO-SY =        1733.3049     STORAGE                          
                 WEL =           0.0000                   WEL =           0.0000     WEL-1                            
                RCHA =    33234984.8679                  RCHA =        2137.5000     RCH-1                            
                 CHD =           0.0000                   CHD =           0.0000     CHD-FROM-IBOUND                  

            TOTAL IN =    42823258.0160              TOTAL IN =       43805.4591

          OUT:                                     OUT:
          ----                                     ----
              STO-SS =    22323953.4994                STO-SS =           0.0000     STORAGE                          
              STO-SY =      929662.4369                STO-SY =           0.0000     STORAGE                          
                 WEL =     5130618.6467                   WEL =       20000.0000     WEL-1                            
                RCHA =           0.0000                  RCHA =           0.0000     RCH-1                            
                 CHD =    14439041.9154                   CHD =       23805.4592     CHD-FROM-IBOUND                  

           TOTAL OUT =    42823276.4984             TOTAL OUT =       43805.4592

            IN - OUT =         -18.4825              IN - OUT =      -8.6836E-05

 PERCENT DISCREPANCY =          -0.00     PERCENT DISCREPANCY =          -0.00




         TIME SUMMARY AT END OF TIME STEP    5 IN STRESS PERIOD   22
                    SECONDS     MINUTES      HOURS       DAYS        YEARS
                    -----------------------------------------------------------
   TIME STEP LENGTH 3.25762E+05  5429.4      90.489      3.7704     1.03228E-02
 STRESS PERIOD TIME 1.16907E+06  19485.      324.74      13.531     3.70457E-02
         TOTAL TIME 5.37867E+07 8.96445E+05  14941.      622.53      1.7044    


end timestep


start timestep kper="22" kstp="6" mode="normal"

 UBDSV1 SAVING     FLOW-JA-FACE ON UNIT   1015 AT TIME STEP      6, STRESS PERIOD     22
 UBDSV06 SAVING              WEL IN MODEL MUMODEL          PACKAGE MUMODEL         CONNECTED TO MODEL MUMODEL          PACKAGE WEL-1            ON UNIT   1015 AT TIME STEP      6, STRESS PERIOD     22
 UBDSV06 SAVING             RCHA IN MODEL MUMODEL          PACKAGE MUMODEL         CONNECTED TO MODEL MUMODEL          PACKAGE RCH-1            ON UNIT   1015 AT TIME STEP      6, STRESS PERIOD     22

 WEL PACKAGE (WEL-1) FLOW RATES   PERIOD     22   STEP        6
 -----------------------------------------------
   NUMBER   CELLID                    RATE      
 -----------------------------------------------
     1      (1,5,5)              -20000.000     
     2      (1,11,5)              0.0000000     
     3      (1,5,5)               0.0000000     
 -----------------------------------------------




 CHD PACKAGE (CHD-FROM-IBOUND) FLOW RATES   PERIOD     22   STEP        6
 -----------------------------------------------
   NUMBER   CELLID                    RATE      
 -----------------------------------------------
     1      (1,1,1)              -1322.2519     
     2      (1,1,2)              -1322.1253     
     3      (1,1,3)              -1321.2761     
     4      (1,1,4)              -1317.3710     
     5      (1,1,5)              -1308.6378     
     6      (1,1,6)              -1317.3723     
     7      (1,1,7)              -1321.2784     
     8      (1,1,8)              -1322.1278     
     9      (1,1,9)              -1322.2542     
     10     (1,21,1)             -1322.2706     
     11     (1,21,2)             -1322.2701     
     12     (1,21,3)             -1322.2694     
     13     (1,21,4)             -1322.2689     
     14     (1,21,5)             -1322.2687     
     15     (1,21,6)             -1322.2689     
     16     (1,21,7)             -1322.2699     
     17     (1,21,8)             -1322.2716     
     18     (1,21,9)             -1322.2732     
 -----------------------------------------------




 HEAD WILL BE SAVED ON UNIT 1016 AT END OF TIME STEP    6, STRESS PERIOD   22


  VOLUME BUDGET FOR ENTIRE MODEL AT END OF TIME STEP    6, STRESS PERIOD  22
  ---------------------------------------------------------------------------------------------------

     CUMULATIVE VOLUME      L**3       RATES FOR THIS TIME STEP      L**3/T          PACKAGE NAME    
     ------------------                 ------------------------                     ----------------

           IN:                                      IN:
           ---                                      ---
              STO-SS =     9370602.4693                STO-SS =       39905.7042     STORAGE                          
              STO-SY =      406058.8337                STO-SY =        1731.9221     STORAGE                          
                 WEL =           0.0000                   WEL =           0.0000     WEL-1                            
                RCHA =    33244655.9206                  RCHA =        2137.5000     RCH-1                            
                 CHD =           0.0000                   CHD =           0.0000     CHD-FROM-IBOUND                  

            TOTAL IN =    43021317.2236              TOTAL IN =       43775.1262

          OUT:                                     OUT:
          ----                                     ----
              STO-SS =    22323953.4994                STO-SS =           0.0000     STORAGE                          
              STO-SY =      929662.4369                STO-SY =           0.0000     STORAGE                          
                 WEL =     5221108.0295                   WEL =       20000.0000     WEL-1                            
                RCHA =           0.0000                  RCHA =           0.0000     RCH-1                            
                 CHD =    14546611.7410                   CHD =       23775.1264     CHD-FROM-IBOUND                  

           TOTAL OUT =    43021335.7067             TOTAL OUT =       43775.1264

            IN - OUT =         -18.4831              IN - OUT =      -1.4874E-04

 PERCENT DISCREPANCY =          -0.00     PERCENT DISCREPANCY =          -0.00




         TIME SUMMARY AT END OF TIME STEP    6 IN STRESS PERIOD   22
                    SECONDS     MINUTES      HOURS       DAYS        YEARS
                    -----------------------------------------------------------
   TIME STEP LENGTH 3.90914E+05  6515.2      108.59      4.5245     1.23873E-02
 STRESS PERIOD TIME 1.55999E+06  26000.      433.33      18.055     4.94330E-02
         TOTAL TIME 5.41776E+07 9.02960E+05  15049.      627.06      1.7168    


end timestep


start timestep kper="22" kstp="7" mode="normal"

 UBDSV1 SAVING     FLOW-JA-FACE ON UNIT   1015 AT TIME STEP      7, STRESS PERIOD     22
 UBDSV06 SAVING              WEL IN MODEL MUMODEL          PACKAGE MUMODEL         CONNECTED TO MODEL MUMODEL          PACKAGE WEL-1            ON UNIT   1015 AT TIME STEP      7, STRESS PERIOD     22
 UBDSV06 SAVING             RCHA IN MODEL MUMODEL          PACKAGE MUMODEL         CONNECTED TO MODEL MUMODEL          PACKAGE RCH-1            ON UNIT   1015 AT TIME STEP      7, STRESS PERIOD     22

 WEL PACKAGE (WEL-1) FLOW RATES   PERIOD     22   STEP        7
 -----------------------------------------------
   NUMBER   CELLID                    RATE      
 -----------------------------------------------
     1      (1,5,5)              -20000.000     
     2      (1,11,5)              0.0000000     
     3      (1,5,5)               0.0000000     
 -----------------------------------------------




 CHD PACKAGE (CHD-FROM-IBOUND) FLOW RATES   PERIOD     22   STEP        7
 -----------------------------------------------
   NUMBER   CELLID                    RATE      
 -----------------------------------------------
     1      (1,1,1)              -1320.3438     
     2      (1,1,2)              -1320.2034     
     3      (1,1,3)              -1319.2776     
     4      (1,1,4)              -1315.0976     
     5      (1,1,5)              -1305.9335     
     6      (1,1,6)              -1315.0990     
     7      (1,1,7)              -1319.2798     
     8      (1,1,8)              -1320.2059     
     9      (1,1,9)              -1320.3461     
     10     (1,21,1)             -1320.3649     
     11     (1,21,2)             -1320.3644     
     12     (1,21,3)             -1320.3638     
     13     (1,21,4)             -1320.3632     
     14     (1,21,5)             -1320.3630     
     15     (1,21,6)             -1320.3632     
     16     (1,21,7)             -1320.3642     
     17     (1,21,8)             -1320.3660     
     18     (1,21,9)             -1320.3676     
 -----------------------------------------------




 HEAD WILL BE SAVED ON UNIT 1016 AT END OF TIME STEP    7, STRESS PERIOD   22


  VOLUME BUDGET FOR ENTIRE MODEL AT END OF TIME STEP    7, STRESS PERIOD  22
  ---------------------------------------------------------------------------------------------------

     CUMULATIVE VOLUME      L**3       RATES FOR THIS TIME STEP      L**3/T          PACKAGE NAME    
     ------------------                 ------------------------                     ----------------

           IN:                                      IN:
           ---                                      ---
              STO-SS =     9587078.1596                STO-SS =       39871.2872     STORAGE                          
              STO-SY =      415453.1491                STO-SY =        1730.2795     STORAGE                          
                 WEL =           0.0000                   WEL =           0.0000     WEL-1                            
                RCHA =    33256261.1840                  RCHA =        2137.5000     RCH-1                            
                 CHD =           0.0000                   CHD =           0.0000     CHD-FROM-IBOUND                  

            TOTAL IN =    43258792.4927              TOTAL IN =       43739.0667

          OUT:                                     OUT:
          ----                                     ----
              STO-SS =    22323953.4994                STO-SS =           0.0000     STORAGE                          
              STO-SY =      929662.4369                STO-SY =           0.0000     STORAGE                          
                 WEL =     5329695.2888                   WEL =       20000.0000     WEL-1                            
                RCHA =           0.0000                  RCHA =           0.0000     RCH-1                            
                 CHD =    14675499.7521                   CHD =       23739.0670     CHD-FROM-IBOUND                  

           TOTAL OUT =    43258810.9772             TOTAL OUT =       43739.0670

            IN - OUT =         -18.4845              IN - OUT =      -2.4663E-04

 PERCENT DISCREPANCY =          -0.00     PERCENT DISCREPANCY =          -0.00




         TIME SUMMARY AT END OF TIME STEP    7 IN STRESS PERIOD   22
                    SECONDS     MINUTES      HOURS       DAYS        YEARS
                    -----------------------------------------------------------
   TIME STEP LENGTH 4.69097E+05  7818.3      130.30      5.4294     1.48648E-02
 STRESS PERIOD TIME 2.02908E+06  33818.      563.63      23.485     6.42978E-02
         TOTAL TIME 5.46467E+07 9.10778E+05  15180.      632.48      1.7316    


end timestep


start timestep kper="22" kstp="8" mode="normal"

 UBDSV1 SAVING     FLOW-JA-FACE ON UNIT   1015 AT TIME STEP      8, STRESS PERIOD     22
 UBDSV06 SAVING              WEL IN MODEL MUMODEL          PACKAGE MUMODEL         CONNECTED TO MODEL MUMODEL          PACKAGE WEL-1            ON UNIT   1015 AT TIME STEP      8, STRESS PERIOD     22
 UBDSV06 SAVING             RCHA IN MODEL MUMODEL          PACKAGE MUMODEL         CONNECTED TO MODEL MUMODEL          PACKAGE RCH-1            ON UNIT   1015 AT TIME STEP      8, STRESS PERIOD     22

 WEL PACKAGE (WEL-1) FLOW RATES   PERIOD     22   STEP        8
 -----------------------------------------------
   NUMBER   CELLID                    RATE      
 -----------------------------------------------
     1      (1,5,5)              -20000.000     
     2      (1,11,5)              0.0000000     
     3      (1,5,5)               0.0000000     
 -----------------------------------------------




 CHD PACKAGE (CHD-FROM-IBOUND) FLOW RATES   PERIOD     22   STEP        8
 -----------------------------------------------
   NUMBER   CELLID                    RATE      
 -----------------------------------------------
     1      (1,1,1)              -1318.0859     
     2      (1,1,2)              -1317.9273     
     3      (1,1,3)              -1316.9028     
     4      (1,1,4)              -1312.3773     
     5      (1,1,5)              -1302.6853     
     6      (1,1,6)              -1312.3786     
     7      (1,1,7)              -1316.9050     
     8      (1,1,8)              -1317.9298     
     9      (1,1,9)              -1318.0882     
     10     (1,21,1)             -1318.1103     
     11     (1,21,2)             -1318.1098     
     12     (1,21,3)             -1318.1092     
     13     (1,21,4)             -1318.1087     
     14     (1,21,5)             -1318.1084     
     15     (1,21,6)             -1318.1086     
     16     (1,21,7)             -1318.1097     
     17     (1,21,8)             -1318.1114     
     18     (1,21,9)             -1318.1129     
 -----------------------------------------------




 HEAD WILL BE SAVED ON UNIT 1016 AT END OF TIME STEP    8, STRESS PERIOD   22


  VOLUME BUDGET FOR ENTIRE MODEL AT END OF TIME STEP    8, STRESS PERIOD  22
  ---------------------------------------------------------------------------------------------------

     CUMULATIVE VOLUME      L**3       RATES FOR THIS TIME STEP      L**3/T          PACKAGE NAME    
     ------------------                 ------------------------                     ----------------

           IN:                                      IN:
           ---                                      ---
              STO-SS =     9846582.8356                STO-SS =       39830.4365     STORAGE                          
              STO-SY =      426713.6410                STO-SY =        1728.3323     STORAGE                          
                 WEL =           0.0000                   WEL =           0.0000     WEL-1                            
                RCHA =    33270187.5000                  RCHA =        2137.5000     RCH-1                            
                 CHD =           0.0000                   CHD =           0.0000     CHD-FROM-IBOUND                  

            TOTAL IN =    43543483.9767              TOTAL IN =       43696.2687

          OUT:                                     OUT:
          ----                                     ----
              STO-SS =    22323953.4994                STO-SS =           0.0000     STORAGE                          
              STO-SY =      929662.4369                STO-SY =           0.0000     STORAGE                          
                 WEL =     5460000.0000                   WEL =       20000.0000     WEL-1                            
                RCHA =           0.0000                  RCHA =           0.0000     RCH-1                            
                 CHD =    14829886.5275                   CHD =       23696.2691     CHD-FROM-IBOUND                  

           TOTAL OUT =    43543502.4638             TOTAL OUT =       43696.2691

            IN - OUT =         -18.4871              IN - OUT =      -4.0739E-04

 PERCENT DISCREPANCY =          -0.00     PERCENT DISCREPANCY =          -0.00




         TIME SUMMARY AT END OF TIME STEP    8 IN STRESS PERIOD   22
                    SECONDS     MINUTES      HOURS       DAYS        YEARS
                    -----------------------------------------------------------
   TIME STEP LENGTH 5.62916E+05  9381.9      156.37      6.5152     1.78377E-02
 STRESS PERIOD TIME 2.59200E+06  43200.      720.00      30.000     8.21355E-02
         TOTAL TIME 5.52096E+07 9.20160E+05  15336.      639.00      1.7495    


end timestep


start timestep kper="23" kstp="1" mode="normal"


 OUTPUT CONTROL FOR STRESS PERIOD 23 IS REPEATED USING SETTINGS FROM A PREVIOUS STRESS PERIOD.


 STRESS PERIOD 23 IS TRANSIENT


 REUSING WELS FROM LAST STRESS PERIOD

 REUSING RCHS FROM LAST STRESS PERIOD

 REUSING CHDS FROM LAST STRESS PERIOD
 UBDSV1 SAVING     FLOW-JA-FACE ON UNIT   1015 AT TIME STEP      1, STRESS PERIOD     23
 UBDSV06 SAVING              WEL IN MODEL MUMODEL          PACKAGE MUMODEL         CONNECTED TO MODEL MUMODEL          PACKAGE WEL-1            ON UNIT   1015 AT TIME STEP      1, STRESS PERIOD     23
 UBDSV06 SAVING             RCHA IN MODEL MUMODEL          PACKAGE MUMODEL         CONNECTED TO MODEL MUMODEL          PACKAGE RCH-1            ON UNIT   1015 AT TIME STEP      1, STRESS PERIOD     23

 WEL PACKAGE (WEL-1) FLOW RATES   PERIOD     23   STEP        1
 -----------------------------------------------
   NUMBER   CELLID                    RATE      
 -----------------------------------------------
     1      (1,5,5)              -20000.000     
     2      (1,11,5)              0.0000000     
     3      (1,5,5)               0.0000000     
 -----------------------------------------------




 CHD PACKAGE (CHD-FROM-IBOUND) FLOW RATES   PERIOD     23   STEP        1
 -----------------------------------------------
   NUMBER   CELLID                    RATE      
 -----------------------------------------------
     1      (1,1,1)              -1317.4374     
     2      (1,1,2)              -1317.2734     
     3      (1,1,3)              -1316.2198     
     4      (1,1,4)              -1311.5933     
     5      (1,1,5)              -1301.7482     
     6      (1,1,6)              -1311.5947     
     7      (1,1,7)              -1316.2221     
     8      (1,1,8)              -1317.2759     
     9      (1,1,9)              -1317.4397     
     10     (1,21,1)             -1317.4627     
     11     (1,21,2)             -1317.4622     
     12     (1,21,3)             -1317.4616     
     13     (1,21,4)             -1317.4611     
     14     (1,21,5)             -1317.4609     
     15     (1,21,6)             -1317.4611     
     16     (1,21,7)             -1317.4621     
     17     (1,21,8)             -1317.4638     
     18     (1,21,9)             -1317.4654     
 -----------------------------------------------




 HEAD WILL BE SAVED ON UNIT 1016 AT END OF TIME STEP    1, STRESS PERIOD   23


  VOLUME BUDGET FOR ENTIRE MODEL AT END OF TIME STEP    1, STRESS PERIOD  23
  ---------------------------------------------------------------------------------------------------

     CUMULATIVE VOLUME      L**3       RATES FOR THIS TIME STEP      L**3/T          PACKAGE NAME    
     ------------------                 ------------------------                     ----------------

           IN:                                      IN:
           ---                                      ---
              STO-SS =     9921397.1147                STO-SS =       39818.2947     STORAGE                          
              STO-SY =      429960.6874                STO-SY =        1728.1708     STORAGE                          
                 WEL =           0.0000                   WEL =           0.0000     WEL-1                            
                RCHA =    33274203.6319                  RCHA =        2137.5000     RCH-1                            
                 CHD =           0.0000                   CHD =           0.0000     CHD-FROM-IBOUND                  

            TOTAL IN =    43625561.4340              TOTAL IN =       43683.9654

          OUT:                                     OUT:
          ----                                     ----
              STO-SS =    22323953.4994                STO-SS =           0.0000     STORAGE                          
              STO-SY =      929662.4369                STO-SY =           0.0000     STORAGE                          
                 WEL =     5497577.8419                   WEL =       20000.0000     WEL-1                            
                RCHA =           0.0000                  RCHA =           0.0000     RCH-1                            
                 CHD =    14874386.1431                   CHD =       23683.9655     CHD-FROM-IBOUND                  

           TOTAL OUT =    43625579.9213             TOTAL OUT =       43683.9655

            IN - OUT =         -18.4873              IN - OUT =      -8.7337E-05

 PERCENT DISCREPANCY =          -0.00     PERCENT DISCREPANCY =          -0.00




         TIME SUMMARY AT END OF TIME STEP    1 IN STRESS PERIOD   23
                    SECONDS     MINUTES      HOURS       DAYS        YEARS
                    -----------------------------------------------------------
   TIME STEP LENGTH 1.62336E+05  2705.6      45.093      1.8789     5.14413E-03
 STRESS PERIOD TIME 1.62336E+05  2705.6      45.093      1.8789     5.14413E-03
         TOTAL TIME 5.53719E+07 9.22866E+05  15381.      640.88      1.7546    


end timestep


start timestep kper="23" kstp="2" mode="normal"

 UBDSV1 SAVING     FLOW-JA-FACE ON UNIT   1015 AT TIME STEP      2, STRESS PERIOD     23
 UBDSV06 SAVING              WEL IN MODEL MUMODEL          PACKAGE MUMODEL         CONNECTED TO MODEL MUMODEL          PACKAGE WEL-1            ON UNIT   1015 AT TIME STEP      2, STRESS PERIOD     23
 UBDSV06 SAVING             RCHA IN MODEL MUMODEL          PACKAGE MUMODEL         CONNECTED TO MODEL MUMODEL          PACKAGE RCH-1            ON UNIT   1015 AT TIME STEP      2, STRESS PERIOD     23

 WEL PACKAGE (WEL-1) FLOW RATES   PERIOD     23   STEP        2
 -----------------------------------------------
   NUMBER   CELLID                    RATE      
 -----------------------------------------------
     1      (1,5,5)              -20000.000     
     2      (1,11,5)              0.0000000     
     3      (1,5,5)               0.0000000     
 -----------------------------------------------




 CHD PACKAGE (CHD-FROM-IBOUND) FLOW RATES   PERIOD     23   STEP        2
 -----------------------------------------------
   NUMBER   CELLID                    RATE      
 -----------------------------------------------
     1      (1,1,1)              -1316.6630     
     2      (1,1,2)              -1316.4923     
     3      (1,1,3)              -1315.4030     
     4      (1,1,4)              -1310.6535     
     5      (1,1,5)              -1300.6234     
     6      (1,1,6)              -1310.6548     
     7      (1,1,7)              -1315.4053     
     8      (1,1,8)              -1316.4947     
     9      (1,1,9)              -1316.6652     
     10     (1,21,1)             -1316.6895     
     11     (1,21,2)             -1316.6890     
     12     (1,21,3)             -1316.6884     
     13     (1,21,4)             -1316.6879     
     14     (1,21,5)             -1316.6876     
     15     (1,21,6)             -1316.6879     
     16     (1,21,7)             -1316.6889     
     17     (1,21,8)             -1316.6906     
     18     (1,21,9)             -1316.6922     
 -----------------------------------------------




 HEAD WILL BE SAVED ON UNIT 1016 AT END OF TIME STEP    2, STRESS PERIOD   23


  VOLUME BUDGET FOR ENTIRE MODEL AT END OF TIME STEP    2, STRESS PERIOD  23
  ---------------------------------------------------------------------------------------------------

     CUMULATIVE VOLUME      L**3       RATES FOR THIS TIME STEP      L**3/T          PACKAGE NAME    
     ------------------                 ------------------------                     ----------------

           IN:                                      IN:
           ---                                      ---
              STO-SS =    10011142.6081                STO-SS =       39804.2609     STORAGE                          
              STO-SY =      433855.6218                STO-SY =        1727.4960     STORAGE                          
                 WEL =           0.0000                   WEL =           0.0000     WEL-1                            
                RCHA =    33279022.9901                  RCHA =        2137.5000     RCH-1                            
                 CHD =           0.0000                   CHD =           0.0000     CHD-FROM-IBOUND                  

            TOTAL IN =    43724021.2199              TOTAL IN =       43669.2569

          OUT:                                     OUT:
          ----                                     ----
              STO-SS =    22323953.4994                STO-SS =           0.0000     STORAGE                          
              STO-SY =      929662.4369                STO-SY =           0.0000     STORAGE                          
                 WEL =     5542671.2522                   WEL =       20000.0000     WEL-1                            
                RCHA =           0.0000                  RCHA =           0.0000     RCH-1                            
                 CHD =    14927752.5191                   CHD =       23669.2571     CHD-FROM-IBOUND                  

           TOTAL OUT =    43724039.7076             TOTAL OUT =       43669.2571

            IN - OUT =         -18.4876              IN - OUT =      -1.5621E-04

 PERCENT DISCREPANCY =          -0.00     PERCENT DISCREPANCY =          -0.00




         TIME SUMMARY AT END OF TIME STEP    2 IN STRESS PERIOD   23
                    SECONDS     MINUTES      HOURS       DAYS        YEARS
                    -----------------------------------------------------------
   TIME STEP LENGTH 1.94804E+05  3246.7      54.112      2.2547     6.17295E-03
 STRESS PERIOD TIME 3.57140E+05  5952.3      99.206      4.1336     1.13171E-02
         TOTAL TIME 5.55667E+07 9.26112E+05  15435.      643.13      1.7608    


end timestep


start timestep kper="23" kstp="3" mode="normal"

 UBDSV1 SAVING     FLOW-JA-FACE ON UNIT   1015 AT TIME STEP      3, STRESS PERIOD     23
 UBDSV06 SAVING              WEL IN MODEL MUMODEL          PACKAGE MUMODEL         CONNECTED TO MODEL MUMODEL          PACKAGE WEL-1            ON UNIT   1015 AT TIME STEP      3, STRESS PERIOD     23
 UBDSV06 SAVING             RCHA IN MODEL MUMODEL          PACKAGE MUMODEL         CONNECTED TO MODEL MUMODEL          PACKAGE RCH-1            ON UNIT   1015 AT TIME STEP      3, STRESS PERIOD     23

 WEL PACKAGE (WEL-1) FLOW RATES   PERIOD     23   STEP        3
 -----------------------------------------------
   NUMBER   CELLID                    RATE      
 -----------------------------------------------
     1      (1,5,5)              -20000.000     
     2      (1,11,5)              0.0000000     
     3      (1,5,5)               0.0000000     
 -----------------------------------------------




 CHD PACKAGE (CHD-FROM-IBOUND) FLOW RATES   PERIOD     23   STEP        3
 -----------------------------------------------
   NUMBER   CELLID                    RATE      
 -----------------------------------------------
     1      (1,1,1)              -1315.7390     
     2      (1,1,2)              -1315.5600     
     3      (1,1,3)              -1314.4267     
     4      (1,1,4)              -1309.5268     
     5      (1,1,5)              -1299.2730     
     6      (1,1,6)              -1309.5281     
     7      (1,1,7)              -1314.4290     
     8      (1,1,8)              -1315.5624     
     9      (1,1,9)              -1315.7412     
     10     (1,21,1)             -1315.7670     
     11     (1,21,2)             -1315.7665     
     12     (1,21,3)             -1315.7659     
     13     (1,21,4)             -1315.7654     
     14     (1,21,5)             -1315.7652     
     15     (1,21,6)             -1315.7654     
     16     (1,21,7)             -1315.7664     
     17     (1,21,8)             -1315.7681     
     18     (1,21,9)             -1315.7697     
 -----------------------------------------------




 HEAD WILL BE SAVED ON UNIT 1016 AT END OF TIME STEP    3, STRESS PERIOD   23


  VOLUME BUDGET FOR ENTIRE MODEL AT END OF TIME STEP    3, STRESS PERIOD  23
  ---------------------------------------------------------------------------------------------------

     CUMULATIVE VOLUME      L**3       RATES FOR THIS TIME STEP      L**3/T          PACKAGE NAME    
     ------------------                 ------------------------                     ----------------

           IN:                                      IN:
           ---                                      ---
              STO-SS =    10118791.8379                STO-SS =       39787.4949     STORAGE                          
              STO-SY =      438527.3638                STO-SY =        1726.6906     STORAGE                          
                 WEL =           0.0000                   WEL =           0.0000     WEL-1                            
                RCHA =    33284806.2199                  RCHA =        2137.5000     RCH-1                            
                 CHD =           0.0000                   CHD =           0.0000     CHD-FROM-IBOUND                  

            TOTAL IN =    43842125.4217              TOTAL IN =       43651.6855

          OUT:                                     OUT:
          ----                                     ----
              STO-SS =    22323953.4994                STO-SS =           0.0000     STORAGE                          
              STO-SY =      929662.4369                STO-SY =           0.0000     STORAGE                          
                 WEL =     5596783.3445                   WEL =       20000.0000     WEL-1                            
                RCHA =           0.0000                  RCHA =           0.0000     RCH-1                            
                 CHD =    14991744.6293                   CHD =       23651.6858     CHD-FROM-IBOUND                  

           TOTAL OUT =    43842143.9101             TOTAL OUT =       43651.6858

            IN - OUT =         -18.4884              IN - OUT =      -2.6486E-04

 PERCENT DISCREPANCY =          -0.00     PERCENT DISCREPANCY =          -0.00




         TIME SUMMARY AT END OF TIME STEP    3 IN STRESS PERIOD   23
                    SECONDS     MINUTES      HOURS       DAYS        YEARS
                    -----------------------------------------------------------
   TIME STEP LENGTH 2.33764E+05  3896.1      64.935      2.7056     7.40754E-03
 STRESS PERIOD TIME 5.90904E+05  9848.4      164.14      6.8392     1.87246E-02
         TOTAL TIME 5.58005E+07 9.30008E+05  15500.      645.84      1.7682    


end timestep


start timestep kper="23" kstp="4" mode="normal"

 UBDSV1 SAVING     FLOW-JA-FACE ON UNIT   1015 AT TIME STEP      4, STRESS PERIOD     23
 UBDSV06 SAVING              WEL IN MODEL MUMODEL          PACKAGE MUMODEL         CONNECTED TO MODEL MUMODEL          PACKAGE WEL-1            ON UNIT   1015 AT TIME STEP      4, STRESS PERIOD     23
 UBDSV06 SAVING             RCHA IN MODEL MUMODEL          PACKAGE MUMODEL         CONNECTED TO MODEL MUMODEL          PACKAGE RCH-1            ON UNIT   1015 AT TIME STEP      4, STRESS PERIOD     23

 WEL PACKAGE (WEL-1) FLOW RATES   PERIOD     23   STEP        4
 -----------------------------------------------
   NUMBER   CELLID                    RATE      
 -----------------------------------------------
     1      (1,5,5)              -20000.000     
     2      (1,11,5)              0.0000000     
     3      (1,5,5)               0.0000000     
 -----------------------------------------------




 CHD PACKAGE (CHD-FROM-IBOUND) FLOW RATES   PERIOD     23   STEP        4
 -----------------------------------------------
   NUMBER   CELLID                    RATE      
 -----------------------------------------------
     1      (1,1,1)              -1314.6377     
     2      (1,1,2)              -1314.4484     
     3      (1,1,3)              -1313.2606     
     4      (1,1,4)              -1308.1761     
     5      (1,1,5)              -1297.6515     
     6      (1,1,6)              -1308.1775     
     7      (1,1,7)              -1313.2628     
     8      (1,1,8)              -1314.4508     
     9      (1,1,9)              -1314.6400     
     10     (1,21,1)             -1314.6677     
     11     (1,21,2)             -1314.6672     
     12     (1,21,3)             -1314.6666     
     13     (1,21,4)             -1314.6661     
     14     (1,21,5)             -1314.6659     
     15     (1,21,6)             -1314.6662     
     16     (1,21,7)             -1314.6672     
     17     (1,21,8)             -1314.6689     
     18     (1,21,9)             -1314.6704     
 -----------------------------------------------




 HEAD WILL BE SAVED ON UNIT 1016 AT END OF TIME STEP    4, STRESS PERIOD   23


  VOLUME BUDGET FOR ENTIRE MODEL AT END OF TIME STEP    4, STRESS PERIOD  23
  ---------------------------------------------------------------------------------------------------

     CUMULATIVE VOLUME      L**3       RATES FOR THIS TIME STEP      L**3/T          PACKAGE NAME    
     ------------------                 ------------------------                     ----------------

           IN:                                      IN:
           ---                                      ---
              STO-SS =    10247905.9360                STO-SS =       39767.4816     STORAGE                          
              STO-SY =      444130.3359                STO-SY =        1725.7301     STORAGE                          
                 WEL =           0.0000                   WEL =           0.0000     WEL-1                            
                RCHA =    33291746.0958                  RCHA =        2137.5000     RCH-1                            
                 CHD =           0.0000                   CHD =           0.0000     CHD-FROM-IBOUND                  

            TOTAL IN =    43983782.3676              TOTAL IN =       43630.7117

          OUT:                                     OUT:
          ----                                     ----
              STO-SS =    22323953.4994                STO-SS =           0.0000     STORAGE                          
              STO-SY =      929662.4369                STO-SY =           0.0000     STORAGE                          
                 WEL =     5661717.8553                   WEL =       20000.0000     WEL-1                            
                RCHA =           0.0000                  RCHA =           0.0000     RCH-1                            
                 CHD =    15068467.0646                   CHD =       23630.7117     CHD-FROM-IBOUND                  

           TOTAL OUT =    43983800.8561             TOTAL OUT =       43630.7117

            IN - OUT =         -18.4885              IN - OUT =      -5.3677E-05

 PERCENT DISCREPANCY =          -0.00     PERCENT DISCREPANCY =          -0.00




         TIME SUMMARY AT END OF TIME STEP    4 IN STRESS PERIOD   23
                    SECONDS     MINUTES      HOURS       DAYS        YEARS
                    -----------------------------------------------------------
   TIME STEP LENGTH 2.80517E+05  4675.3      77.921      3.2467     8.88905E-03
 STRESS PERIOD TIME 8.71421E+05  14524.      242.06      10.086     2.76137E-02
         TOTAL TIME 5.60810E+07 9.34684E+05  15578.      649.09      1.7771    


end timestep


start timestep kper="23" kstp="5" mode="normal"

 UBDSV1 SAVING     FLOW-JA-FACE ON UNIT   1015 AT TIME STEP      5, STRESS PERIOD     23
 UBDSV06 SAVING              WEL IN MODEL MUMODEL          PACKAGE MUMODEL         CONNECTED TO MODEL MUMODEL          PACKAGE WEL-1            ON UNIT   1015 AT TIME STEP      5, STRESS PERIOD     23
 UBDSV06 SAVING             RCHA IN MODEL MUMODEL          PACKAGE MUMODEL         CONNECTED TO MODEL MUMODEL          PACKAGE RCH-1            ON UNIT   1015 AT TIME STEP      5, STRESS PERIOD     23

 WEL PACKAGE (WEL-1) FLOW RATES   PERIOD     23   STEP        5
 -----------------------------------------------
   NUMBER   CELLID                    RATE      
 -----------------------------------------------
     1      (1,5,5)              -20000.000     
     2      (1,11,5)              0.0000000     
     3      (1,5,5)               0.0000000     
 -----------------------------------------------




 CHD PACKAGE (CHD-FROM-IBOUND) FLOW RATES   PERIOD     23   STEP        5
 -----------------------------------------------
   NUMBER   CELLID                    RATE      
 -----------------------------------------------
     1      (1,1,1)              -1313.3271     
     2      (1,1,2)              -1313.1246     
     3      (1,1,3)              -1311.8688     
     4      (1,1,4)              -1306.5573     
     5      (1,1,5)              -1295.7042     
     6      (1,1,6)              -1306.5586     
     7      (1,1,7)              -1311.8709     
     8      (1,1,8)              -1313.1270     
     9      (1,1,9)              -1313.3293     
     10     (1,21,1)             -1313.3595     
     11     (1,21,2)             -1313.3591     
     12     (1,21,3)             -1313.3584     
     13     (1,21,4)             -1313.3580     
     14     (1,21,5)             -1313.3577     
     15     (1,21,6)             -1313.3580     
     16     (1,21,7)             -1313.3590     
     17     (1,21,8)             -1313.3607     
     18     (1,21,9)             -1313.3622     
 -----------------------------------------------




 HEAD WILL BE SAVED ON UNIT 1016 AT END OF TIME STEP    5, STRESS PERIOD   23


  VOLUME BUDGET FOR ENTIRE MODEL AT END OF TIME STEP    5, STRESS PERIOD  23
  ---------------------------------------------------------------------------------------------------

     CUMULATIVE VOLUME      L**3       RATES FOR THIS TIME STEP      L**3/T          PACKAGE NAME    
     ------------------                 ------------------------                     ----------------

           IN:                                      IN:
           ---                                      ---
              STO-SS =    10402749.8645                STO-SS =       39743.6142     STORAGE                          
              STO-SY =      450849.4451                STO-SY =        1724.5861     STORAGE                          
                 WEL =           0.0000                   WEL =           0.0000     WEL-1                            
                RCHA =    33300073.9468                  RCHA =        2137.5000     RCH-1                            
                 CHD =           0.0000                   CHD =           0.0000     CHD-FROM-IBOUND                  

            TOTAL IN =    44153673.2564              TOTAL IN =       43605.7002

          OUT:                                     OUT:
          ----                                     ----
              STO-SS =    22323953.4994                STO-SS =           0.0000     STORAGE                          
              STO-SY =      929662.4369                STO-SY =           0.0000     STORAGE                          
                 WEL =     5739639.2682                   WEL =       20000.0000     WEL-1                            
                RCHA =           0.0000                  RCHA =           0.0000     RCH-1                            
                 CHD =    15160436.5407                   CHD =       23605.7003     CHD-FROM-IBOUND                  

           TOTAL OUT =    44153691.7453             TOTAL OUT =       43605.7003

            IN - OUT =         -18.4889              IN - OUT =      -8.6224E-05

 PERCENT DISCREPANCY =          -0.00     PERCENT DISCREPANCY =          -0.00




         TIME SUMMARY AT END OF TIME STEP    5 IN STRESS PERIOD   23
                    SECONDS     MINUTES      HOURS       DAYS        YEARS
                    -----------------------------------------------------------
   TIME STEP LENGTH 3.36621E+05  5610.3      93.506      3.8961     1.06669E-02
 STRESS PERIOD TIME 1.20804E+06  20134.      335.57      13.982     3.82805E-02
         TOTAL TIME 5.64176E+07 9.40294E+05  15672.      652.98      1.7878    


end timestep


start timestep kper="23" kstp="6" mode="normal"

 UBDSV1 SAVING     FLOW-JA-FACE ON UNIT   1015 AT TIME STEP      6, STRESS PERIOD     23
 UBDSV06 SAVING              WEL IN MODEL MUMODEL          PACKAGE MUMODEL         CONNECTED TO MODEL MUMODEL          PACKAGE WEL-1            ON UNIT   1015 AT TIME STEP      6, STRESS PERIOD     23
 UBDSV06 SAVING             RCHA IN MODEL MUMODEL          PACKAGE MUMODEL         CONNECTED TO MODEL MUMODEL          PACKAGE RCH-1            ON UNIT   1015 AT TIME STEP      6, STRESS PERIOD     23

 WEL PACKAGE (WEL-1) FLOW RATES   PERIOD     23   STEP        6
 -----------------------------------------------
   NUMBER   CELLID                    RATE      
 -----------------------------------------------
     1      (1,5,5)              -20000.000     
     2      (1,11,5)              0.0000000     
     3      (1,5,5)               0.0000000     
 -----------------------------------------------




 CHD PACKAGE (CHD-FROM-IBOUND) FLOW RATES   PERIOD     23   STEP        6
 -----------------------------------------------
   NUMBER   CELLID                    RATE      
 -----------------------------------------------
     1      (1,1,1)              -1311.7695     
     2      (1,1,2)              -1311.5502     
     3      (1,1,3)              -1310.2091     
     4      (1,1,4)              -1304.6169     
     5      (1,1,5)              -1293.3650     
     6      (1,1,6)              -1304.6182     
     7      (1,1,7)              -1310.2112     
     8      (1,1,8)              -1311.5526     
     9      (1,1,9)              -1311.7717     
     10     (1,21,1)             -1311.8052     
     11     (1,21,2)             -1311.8047     
     12     (1,21,3)             -1311.8041     
     13     (1,21,4)             -1311.8036     
     14     (1,21,5)             -1311.8034     
     15     (1,21,6)             -1311.8037     
     16     (1,21,7)             -1311.8047     
     17     (1,21,8)             -1311.8064     
     18     (1,21,9)             -1311.8079     
 -----------------------------------------------




 HEAD WILL BE SAVED ON UNIT 1016 AT END OF TIME STEP    6, STRESS PERIOD   23


  VOLUME BUDGET FOR ENTIRE MODEL AT END OF TIME STEP    6, STRESS PERIOD  23
  ---------------------------------------------------------------------------------------------------

     CUMULATIVE VOLUME      L**3       RATES FOR THIS TIME STEP      L**3/T          PACKAGE NAME    
     ------------------                 ------------------------                     ----------------

           IN:                                      IN:
           ---                                      ---
              STO-SS =    10588429.6522                STO-SS =       39715.1824     STORAGE                          
              STO-SY =      458906.0146                STO-SY =        1723.2254     STORAGE                          
                 WEL =           0.0000                   WEL =           0.0000     WEL-1                            
                RCHA =    33310067.3680                  RCHA =        2137.5000     RCH-1                            
                 CHD =           0.0000                   CHD =           0.0000     CHD-FROM-IBOUND                  

            TOTAL IN =    44357403.0347              TOTAL IN =       43575.9078

          OUT:                                     OUT:
          ----                                     ----
              STO-SS =    22323953.4994                STO-SS =           0.0000     STORAGE                          
              STO-SY =      929662.4369                STO-SY =           0.0000     STORAGE                          
                 WEL =     5833144.9638                   WEL =       20000.0000     WEL-1                            
                RCHA =           0.0000                  RCHA =           0.0000     RCH-1                            
                 CHD =    15270660.6242                   CHD =       23575.9079     CHD-FROM-IBOUND                  

           TOTAL OUT =    44357421.5243             TOTAL OUT =       43575.9079

            IN - OUT =         -18.4895              IN - OUT =      -1.4529E-04

 PERCENT DISCREPANCY =          -0.00     PERCENT DISCREPANCY =          -0.00




         TIME SUMMARY AT END OF TIME STEP    6 IN STRESS PERIOD   23
                    SECONDS     MINUTES      HOURS       DAYS        YEARS
                    -----------------------------------------------------------
   TIME STEP LENGTH 4.03945E+05  6732.4      112.21      4.6753     1.28002E-02
 STRESS PERIOD TIME 1.61199E+06  26866.      447.77      18.657     5.10808E-02
         TOTAL TIME 5.68216E+07 9.47026E+05  15784.      657.66      1.8006    


end timestep


start timestep kper="23" kstp="7" mode="normal"

 UBDSV1 SAVING     FLOW-JA-FACE ON UNIT   1015 AT TIME STEP      7, STRESS PERIOD     23
 UBDSV06 SAVING              WEL IN MODEL MUMODEL          PACKAGE MUMODEL         CONNECTED TO MODEL MUMODEL          PACKAGE WEL-1            ON UNIT   1015 AT TIME STEP      7, STRESS PERIOD     23
 UBDSV06 SAVING             RCHA IN MODEL MUMODEL          PACKAGE MUMODEL         CONNECTED TO MODEL MUMODEL          PACKAGE RCH-1            ON UNIT   1015 AT TIME STEP      7, STRESS PERIOD     23

 WEL PACKAGE (WEL-1) FLOW RATES   PERIOD     23   STEP        7
 -----------------------------------------------
   NUMBER   CELLID                    RATE      
 -----------------------------------------------
     1      (1,5,5)              -20000.000     
     2      (1,11,5)              0.0000000     
     3      (1,5,5)               0.0000000     
 -----------------------------------------------




 CHD PACKAGE (CHD-FROM-IBOUND) FLOW RATES   PERIOD     23   STEP        7
 -----------------------------------------------
   NUMBER   CELLID                    RATE      
 -----------------------------------------------
     1      (1,1,1)              -1309.9218     
     2      (1,1,2)              -1309.6810     
     3      (1,1,3)              -1308.2318     
     4      (1,1,4)              -1302.2912     
     5      (1,1,5)              -1290.5541     
     6      (1,1,6)              -1302.2925     
     7      (1,1,7)              -1308.2339     
     8      (1,1,8)              -1309.6834     
     9      (1,1,9)              -1309.9240     
     10     (1,21,1)             -1309.9617     
     11     (1,21,2)             -1309.9613     
     12     (1,21,3)             -1309.9607     
     13     (1,21,4)             -1309.9602     
     14     (1,21,5)             -1309.9600     
     15     (1,21,6)             -1309.9603     
     16     (1,21,7)             -1309.9613     
     17     (1,21,8)             -1309.9630     
     18     (1,21,9)             -1309.9645     
 -----------------------------------------------




 HEAD WILL BE SAVED ON UNIT 1016 AT END OF TIME STEP    7, STRESS PERIOD   23


  VOLUME BUDGET FOR ENTIRE MODEL AT END OF TIME STEP    7, STRESS PERIOD  23
  ---------------------------------------------------------------------------------------------------

     CUMULATIVE VOLUME      L**3       RATES FOR THIS TIME STEP      L**3/T          PACKAGE NAME    
     ------------------                 ------------------------                     ----------------

           IN:                                      IN:
           ---                                      ---
              STO-SS =    10811055.6238                STO-SS =       39681.3567     STORAGE                          
              STO-SY =      468564.8330                STO-SY =        1721.6097     STORAGE                          
                 WEL =           0.0000                   WEL =           0.0000     WEL-1                            
                RCHA =    33322059.4735                  RCHA =        2137.5000     RCH-1                            
                 CHD =           0.0000                   CHD =           0.0000     CHD-FROM-IBOUND                  

            TOTAL IN =    44601679.9303              TOTAL IN =       43540.4664

          OUT:                                     OUT:
          ----                                     ----
              STO-SS =    22323953.4994                STO-SS =           0.0000     STORAGE                          
              STO-SY =      929662.4369                STO-SY =           0.0000     STORAGE                          
                 WEL =     5945351.7984                   WEL =       20000.0000     WEL-1                            
                RCHA =           0.0000                  RCHA =           0.0000     RCH-1                            
                 CHD =    15402730.6865                   CHD =       23540.4666     CHD-FROM-IBOUND                  

           TOTAL OUT =    44601698.4212             TOTAL OUT =       43540.4666

            IN - OUT =         -18.4909              IN - OUT =      -2.4083E-04

 PERCENT DISCREPANCY =          -0.00     PERCENT DISCREPANCY =          -0.00




         TIME SUMMARY AT END OF TIME STEP    7 IN STRESS PERIOD   23
                    SECONDS     MINUTES      HOURS       DAYS        YEARS
                    -----------------------------------------------------------
   TIME STEP LENGTH 4.84734E+05  8078.9      134.65      5.6103     1.53603E-02
 STRESS PERIOD TIME 2.09672E+06  34945.      582.42      24.268     6.64410E-02
         TOTAL TIME 5.73063E+07 9.55105E+05  15918.      663.27      1.8159    


end timestep


start timestep kper="23" kstp="8" mode="normal"

 UBDSV1 SAVING     FLOW-JA-FACE ON UNIT   1015 AT TIME STEP      8, STRESS PERIOD     23
 UBDSV06 SAVING              WEL IN MODEL MUMODEL          PACKAGE MUMODEL         CONNECTED TO MODEL MUMODEL          PACKAGE WEL-1            ON UNIT   1015 AT TIME STEP      8, STRESS PERIOD     23
 UBDSV06 SAVING             RCHA IN MODEL MUMODEL          PACKAGE MUMODEL         CONNECTED TO MODEL MUMODEL          PACKAGE RCH-1            ON UNIT   1015 AT TIME STEP      8, STRESS PERIOD     23

 WEL PACKAGE (WEL-1) FLOW RATES   PERIOD     23   STEP        8
 -----------------------------------------------
   NUMBER   CELLID                    RATE      
 -----------------------------------------------
     1      (1,5,5)              -20000.000     
     2      (1,11,5)              0.0000000     
     3      (1,5,5)               0.0000000     
 -----------------------------------------------




 CHD PACKAGE (CHD-FROM-IBOUND) FLOW RATES   PERIOD     23   STEP        8
 -----------------------------------------------
   NUMBER   CELLID                    RATE      
 -----------------------------------------------
     1      (1,1,1)              -1307.7346     
     2      (1,1,2)              -1307.4659     
     3      (1,1,3)              -1305.8788     
     4      (1,1,4)              -1299.5031     
     5      (1,1,5)              -1287.1750     
     6      (1,1,6)              -1299.5044     
     7      (1,1,7)              -1305.8809     
     8      (1,1,8)              -1307.4682     
     9      (1,1,9)              -1307.7368     
     10     (1,21,1)             -1307.7803     
     11     (1,21,2)             -1307.7798     
     12     (1,21,3)             -1307.7792     
     13     (1,21,4)             -1307.7788     
     14     (1,21,5)             -1307.7786     
     15     (1,21,6)             -1307.7789     
     16     (1,21,7)             -1307.7799     
     17     (1,21,8)             -1307.7815     
     18     (1,21,9)             -1307.7830     
 -----------------------------------------------




 HEAD WILL BE SAVED ON UNIT 1016 AT END OF TIME STEP    8, STRESS PERIOD   23


  VOLUME BUDGET FOR ENTIRE MODEL AT END OF TIME STEP    8, STRESS PERIOD  23
  ---------------------------------------------------------------------------------------------------

     CUMULATIVE VOLUME      L**3       RATES FOR THIS TIME STEP      L**3/T          PACKAGE NAME    
     ------------------                 ------------------------                     ----------------

           IN:                                      IN:
           ---                                      ---
              STO-SS =    11077936.2523                STO-SS =       39641.1724     STORAGE                          
              STO-SY =      480142.5234                STO-SY =        1719.6948     STORAGE                          
                 WEL =           0.0000                   WEL =           0.0000     WEL-1                            
                RCHA =    33336450.0000                  RCHA =        2137.5000     RCH-1                            
                 CHD =           0.0000                   CHD =           0.0000     CHD-FROM-IBOUND                  

            TOTAL IN =    44894528.7757              TOTAL IN =       43498.3671

          OUT:                                     OUT:
          ----                                     ----
              STO-SS =    22323953.4994                STO-SS =           0.0000     STORAGE                          
              STO-SY =      929662.4369                STO-SY =           0.0000     STORAGE                          
                 WEL =     6080000.0000                   WEL =       20000.0000     WEL-1                            
                RCHA =           0.0000                  RCHA =           0.0000     RCH-1                            
                 CHD =    15560931.3330                   CHD =       23498.3675     CHD-FROM-IBOUND                  

           TOTAL OUT =    44894547.2693             TOTAL OUT =       43498.3675

            IN - OUT =         -18.4936              IN - OUT =      -3.9745E-04

 PERCENT DISCREPANCY =          -0.00     PERCENT DISCREPANCY =          -0.00




         TIME SUMMARY AT END OF TIME STEP    8 IN STRESS PERIOD   23
                    SECONDS     MINUTES      HOURS       DAYS        YEARS
                    -----------------------------------------------------------
   TIME STEP LENGTH 5.81680E+05  9694.7      161.58      6.7324     1.84323E-02
 STRESS PERIOD TIME 2.67840E+06  44640.      744.00      31.000     8.48734E-02
         TOTAL TIME 5.78880E+07 9.64800E+05  16080.      670.00      1.8344    


end timestep


start timestep kper="24" kstp="1" mode="normal"


 OUTPUT CONTROL FOR STRESS PERIOD 24 IS REPEATED USING SETTINGS FROM A PREVIOUS STRESS PERIOD.


 STRESS PERIOD 24 IS TRANSIENT


 REUSING WELS FROM LAST STRESS PERIOD

 REUSING RCHS FROM LAST STRESS PERIOD

 REUSING CHDS FROM LAST STRESS PERIOD
 UBDSV1 SAVING     FLOW-JA-FACE ON UNIT   1015 AT TIME STEP      1, STRESS PERIOD     24
 UBDSV06 SAVING              WEL IN MODEL MUMODEL          PACKAGE MUMODEL         CONNECTED TO MODEL MUMODEL          PACKAGE WEL-1            ON UNIT   1015 AT TIME STEP      1, STRESS PERIOD     24
 UBDSV06 SAVING             RCHA IN MODEL MUMODEL          PACKAGE MUMODEL         CONNECTED TO MODEL MUMODEL          PACKAGE RCH-1            ON UNIT   1015 AT TIME STEP      1, STRESS PERIOD     24

 WEL PACKAGE (WEL-1) FLOW RATES   PERIOD     24   STEP        1
 -----------------------------------------------
   NUMBER   CELLID                    RATE      
 -----------------------------------------------
     1      (1,5,5)              -20000.000     
     2      (1,11,5)              0.0000000     
     3      (1,5,5)               0.0000000     
 -----------------------------------------------




 CHD PACKAGE (CHD-FROM-IBOUND) FLOW RATES   PERIOD     24   STEP        1
 -----------------------------------------------
   NUMBER   CELLID                    RATE      
 -----------------------------------------------
     1      (1,1,1)              -1307.1461     
     2      (1,1,2)              -1306.8696     
     3      (1,1,3)              -1305.2446     
     4      (1,1,4)              -1298.7502     
     5      (1,1,5)              -1286.2619     
     6      (1,1,6)              -1298.7515     
     7      (1,1,7)              -1305.2467     
     8      (1,1,8)              -1306.8719     
     9      (1,1,9)              -1307.1482     
     10     (1,21,1)             -1307.1933     
     11     (1,21,2)             -1307.1929     
     12     (1,21,3)             -1307.1923     
     13     (1,21,4)             -1307.1918     
     14     (1,21,5)             -1307.1916     
     15     (1,21,6)             -1307.1919     
     16     (1,21,7)             -1307.1929     
     17     (1,21,8)             -1307.1946     
     18     (1,21,9)             -1307.1960     
 -----------------------------------------------




 HEAD WILL BE SAVED ON UNIT 1016 AT END OF TIME STEP    1, STRESS PERIOD   24


  VOLUME BUDGET FOR ENTIRE MODEL AT END OF TIME STEP    1, STRESS PERIOD  24
  ---------------------------------------------------------------------------------------------------

     CUMULATIVE VOLUME      L**3       RATES FOR THIS TIME STEP      L**3/T          PACKAGE NAME    
     ------------------                 ------------------------                     ----------------

           IN:                                      IN:
           ---                                      ---
              STO-SS =    11149994.7448                STO-SS =       39629.9726     STORAGE                          
              STO-SY =      483269.1613                STO-SY =        1719.5555     STORAGE                          
                 WEL =           0.0000                   WEL =           0.0000     WEL-1                            
                RCHA =    33340336.5792                  RCHA =        2137.5000     RCH-1                            
                 CHD =           0.0000                   CHD =           0.0000     CHD-FROM-IBOUND                  

            TOTAL IN =    44973600.4853              TOTAL IN =       43487.0281

          OUT:                                     OUT:
          ----                                     ----
              STO-SS =    22323953.4994                STO-SS =           0.0000     STORAGE                          
              STO-SY =      929662.4369                STO-SY =           0.0000     STORAGE                          
                 WEL =     6116365.6534                   WEL =       20000.0000     WEL-1                            
                RCHA =           0.0000                  RCHA =           0.0000     RCH-1                            
                 CHD =    15603637.3893                   CHD =       23487.0282     CHD-FROM-IBOUND                  

           TOTAL OUT =    44973618.9790             TOTAL OUT =       43487.0282

            IN - OUT =         -18.4937              IN - OUT =      -7.0429E-05

 PERCENT DISCREPANCY =          -0.00     PERCENT DISCREPANCY =          -0.00




         TIME SUMMARY AT END OF TIME STEP    1 IN STRESS PERIOD   24
                    SECONDS     MINUTES      HOURS       DAYS        YEARS
                    -----------------------------------------------------------
   TIME STEP LENGTH 1.57100E+05  2618.3      43.639      1.8183     4.97819E-03
 STRESS PERIOD TIME 1.57100E+05  2618.3      43.639      1.8183     4.97819E-03
         TOTAL TIME 5.80451E+07 9.67418E+05  16124.      671.82      1.8393    


end timestep


start timestep kper="24" kstp="2" mode="normal"

 UBDSV1 SAVING     FLOW-JA-FACE ON UNIT   1015 AT TIME STEP      2, STRESS PERIOD     24
 UBDSV06 SAVING              WEL IN MODEL MUMODEL          PACKAGE MUMODEL         CONNECTED TO MODEL MUMODEL          PACKAGE WEL-1            ON UNIT   1015 AT TIME STEP      2, STRESS PERIOD     24
 UBDSV06 SAVING             RCHA IN MODEL MUMODEL          PACKAGE MUMODEL         CONNECTED TO MODEL MUMODEL          PACKAGE RCH-1            ON UNIT   1015 AT TIME STEP      2, STRESS PERIOD     24

 WEL PACKAGE (WEL-1) FLOW RATES   PERIOD     24   STEP        2
 -----------------------------------------------
   NUMBER   CELLID                    RATE      
 -----------------------------------------------
     1      (1,5,5)              -20000.000     
     2      (1,11,5)              0.0000000     
     3      (1,5,5)               0.0000000     
 -----------------------------------------------




 CHD PACKAGE (CHD-FROM-IBOUND) FLOW RATES   PERIOD     24   STEP        2
 -----------------------------------------------
   NUMBER   CELLID                    RATE      
 -----------------------------------------------
     1      (1,1,1)              -1306.4430     
     2      (1,1,2)              -1306.1569     
     3      (1,1,3)              -1304.4857     
     4      (1,1,4)              -1297.8471     
     5      (1,1,5)              -1285.1656     
     6      (1,1,6)              -1297.8483     
     7      (1,1,7)              -1304.4878     
     8      (1,1,8)              -1306.1592     
     9      (1,1,9)              -1306.4451     
     10     (1,21,1)             -1306.4921     
     11     (1,21,2)             -1306.4917     
     12     (1,21,3)             -1306.4911     
     13     (1,21,4)             -1306.4907     
     14     (1,21,5)             -1306.4905     
     15     (1,21,6)             -1306.4908     
     16     (1,21,7)             -1306.4918     
     17     (1,21,8)             -1306.4934     
     18     (1,21,9)             -1306.4949     
 -----------------------------------------------




 HEAD WILL BE SAVED ON UNIT 1016 AT END OF TIME STEP    2, STRESS PERIOD   24


  VOLUME BUDGET FOR ENTIRE MODEL AT END OF TIME STEP    2, STRESS PERIOD  24
  ---------------------------------------------------------------------------------------------------

     CUMULATIVE VOLUME      L**3       RATES FOR THIS TIME STEP      L**3/T          PACKAGE NAME    
     ------------------                 ------------------------                     ----------------

           IN:                                      IN:
           ---                                      ---
              STO-SS =    11236436.6980                STO-SS =       39617.0310     STORAGE                          
              STO-SY =      487019.7719                STO-SY =        1718.9345     STORAGE                          
                 WEL =           0.0000                   WEL =           0.0000     WEL-1                            
                RCHA =    33345000.4743                  RCHA =        2137.5000     RCH-1                            
                 CHD =           0.0000                   CHD =           0.0000     CHD-FROM-IBOUND                  

            TOTAL IN =    45068456.9442              TOTAL IN =       43473.4655

          OUT:                                     OUT:
          ----                                     ----
              STO-SS =    22323953.4994                STO-SS =           0.0000     STORAGE                          
              STO-SY =      929662.4369                STO-SY =           0.0000     STORAGE                          
                 WEL =     6160004.4376                   WEL =       20000.0000     WEL-1                            
                RCHA =           0.0000                  RCHA =           0.0000     RCH-1                            
                 CHD =    15654855.0642                   CHD =       23473.4656     CHD-FROM-IBOUND                  

           TOTAL OUT =    45068475.4381             TOTAL OUT =       43473.4656

            IN - OUT =         -18.4940              IN - OUT =      -1.2507E-04

 PERCENT DISCREPANCY =          -0.00     PERCENT DISCREPANCY =          -0.00




         TIME SUMMARY AT END OF TIME STEP    2 IN STRESS PERIOD   24
                    SECONDS     MINUTES      HOURS       DAYS        YEARS
                    -----------------------------------------------------------
   TIME STEP LENGTH 1.88520E+05  3142.0      52.367      2.1819     5.97382E-03
 STRESS PERIOD TIME 3.45619E+05  5760.3      96.005      4.0002     1.09520E-02
         TOTAL TIME 5.82336E+07 9.70560E+05  16176.      674.00      1.8453    


end timestep


start timestep kper="24" kstp="3" mode="normal"

 UBDSV1 SAVING     FLOW-JA-FACE ON UNIT   1015 AT TIME STEP      3, STRESS PERIOD     24
 UBDSV06 SAVING              WEL IN MODEL MUMODEL          PACKAGE MUMODEL         CONNECTED TO MODEL MUMODEL          PACKAGE WEL-1            ON UNIT   1015 AT TIME STEP      3, STRESS PERIOD     24
 UBDSV06 SAVING             RCHA IN MODEL MUMODEL          PACKAGE MUMODEL         CONNECTED TO MODEL MUMODEL          PACKAGE RCH-1            ON UNIT   1015 AT TIME STEP      3, STRESS PERIOD     24

 WEL PACKAGE (WEL-1) FLOW RATES   PERIOD     24   STEP        3
 -----------------------------------------------
   NUMBER   CELLID                    RATE      
 -----------------------------------------------
     1      (1,5,5)              -20000.000     
     2      (1,11,5)              0.0000000     
     3      (1,5,5)               0.0000000     
 -----------------------------------------------




 CHD PACKAGE (CHD-FROM-IBOUND) FLOW RATES   PERIOD     24   STEP        3
 -----------------------------------------------
   NUMBER   CELLID                    RATE      
 -----------------------------------------------
     1      (1,1,1)              -1305.6037     
     2      (1,1,2)              -1305.3058     
     3      (1,1,3)              -1303.5778     
     4      (1,1,4)              -1296.7635     
     5      (1,1,5)              -1283.8490     
     6      (1,1,6)              -1296.7648     
     7      (1,1,7)              -1303.5799     
     8      (1,1,8)              -1305.3081     
     9      (1,1,9)              -1305.6058     
     10     (1,21,1)             -1305.6553     
     11     (1,21,2)             -1305.6548     
     12     (1,21,3)             -1305.6543     
     13     (1,21,4)             -1305.6538     
     14     (1,21,5)             -1305.6536     
     15     (1,21,6)             -1305.6539     
     16     (1,21,7)             -1305.6549     
     17     (1,21,8)             -1305.6566     
     18     (1,21,9)             -1305.6580     
 -----------------------------------------------




 HEAD WILL BE SAVED ON UNIT 1016 AT END OF TIME STEP    3, STRESS PERIOD   24


  VOLUME BUDGET FOR ENTIRE MODEL AT END OF TIME STEP    3, STRESS PERIOD  24
  ---------------------------------------------------------------------------------------------------

     CUMULATIVE VOLUME      L**3       RATES FOR THIS TIME STEP      L**3/T          PACKAGE NAME    
     ------------------                 ------------------------                     ----------------

           IN:                                      IN:
           ---                                      ---
              STO-SS =    11340126.5342                STO-SS =       39601.5602     STORAGE                          
              STO-SY =      491518.5633                STO-SY =        1718.1931     STORAGE                          
                 WEL =           0.0000                   WEL =           0.0000     WEL-1                            
                RCHA =    33350597.1483                  RCHA =        2137.5000     RCH-1                            
                 CHD =           0.0000                   CHD =           0.0000     CHD-FROM-IBOUND                  

            TOTAL IN =    45182242.2459              TOTAL IN =       43457.2533

          OUT:                                     OUT:
          ----                                     ----
              STO-SS =    22323953.4994                STO-SS =           0.0000     STORAGE                          
              STO-SY =      929662.4369                STO-SY =           0.0000     STORAGE                          
                 WEL =     6212370.9785                   WEL =       20000.0000     WEL-1                            
                RCHA =           0.0000                  RCHA =           0.0000     RCH-1                            
                 CHD =    15716273.8255                   CHD =       23457.2535     CHD-FROM-IBOUND                  

           TOTAL OUT =    45182260.7404             TOTAL OUT =       43457.2535

            IN - OUT =         -18.4945              IN - OUT =      -2.1753E-04

 PERCENT DISCREPANCY =          -0.00     PERCENT DISCREPANCY =          -0.00




         TIME SUMMARY AT END OF TIME STEP    3 IN STRESS PERIOD   24
                    SECONDS     MINUTES      HOURS       DAYS        YEARS
                    -----------------------------------------------------------
   TIME STEP LENGTH 2.26223E+05  3770.4      62.840      2.6183     7.16859E-03
 STRESS PERIOD TIME 5.71843E+05  9530.7      158.85      6.6185     1.81206E-02
         TOTAL TIME 5.84598E+07 9.74331E+05  16239.      676.62      1.8525    


end timestep


start timestep kper="24" kstp="4" mode="normal"

 UBDSV1 SAVING     FLOW-JA-FACE ON UNIT   1015 AT TIME STEP      4, STRESS PERIOD     24
 UBDSV06 SAVING              WEL IN MODEL MUMODEL          PACKAGE MUMODEL         CONNECTED TO MODEL MUMODEL          PACKAGE WEL-1            ON UNIT   1015 AT TIME STEP      4, STRESS PERIOD     24
 UBDSV06 SAVING             RCHA IN MODEL MUMODEL          PACKAGE MUMODEL         CONNECTED TO MODEL MUMODEL          PACKAGE RCH-1            ON UNIT   1015 AT TIME STEP      4, STRESS PERIOD     24

 WEL PACKAGE (WEL-1) FLOW RATES   PERIOD     24   STEP        4
 -----------------------------------------------
   NUMBER   CELLID                    RATE      
 -----------------------------------------------
     1      (1,5,5)              -20000.000     
     2      (1,11,5)              0.0000000     
     3      (1,5,5)               0.0000000     
 -----------------------------------------------




 CHD PACKAGE (CHD-FROM-IBOUND) FLOW RATES   PERIOD     24   STEP        4
 -----------------------------------------------
   NUMBER   CELLID                    RATE      
 -----------------------------------------------
     1      (1,1,1)              -1304.6028     
     2      (1,1,2)              -1304.2903     
     3      (1,1,3)              -1302.4922     
     4      (1,1,4)              -1295.4636     
     5      (1,1,5)              -1282.2677     
     6      (1,1,6)              -1295.4648     
     7      (1,1,7)              -1302.4943     
     8      (1,1,8)              -1304.2925     
     9      (1,1,9)              -1304.6049     
     10     (1,21,1)             -1304.6575     
     11     (1,21,2)             -1304.6570     
     12     (1,21,3)             -1304.6565     
     13     (1,21,4)             -1304.6560     
     14     (1,21,5)             -1304.6558     
     15     (1,21,6)             -1304.6561     
     16     (1,21,7)             -1304.6571     
     17     (1,21,8)             -1304.6588     
     18     (1,21,9)             -1304.6602     
 -----------------------------------------------




 HEAD WILL BE SAVED ON UNIT 1016 AT END OF TIME STEP    4, STRESS PERIOD   24


  VOLUME BUDGET FOR ENTIRE MODEL AT END OF TIME STEP    4, STRESS PERIOD  24
  ---------------------------------------------------------------------------------------------------

     CUMULATIVE VOLUME      L**3       RATES FOR THIS TIME STEP      L**3/T          PACKAGE NAME    
     ------------------                 ------------------------                     ----------------

           IN:                                      IN:
           ---                                      ---
              STO-SS =    11464496.2703                STO-SS =       39583.0791     STORAGE                          
              STO-SY =      496914.3338                STO-SY =        1717.3086     STORAGE                          
                 WEL =           0.0000                   WEL =           0.0000     WEL-1                            
                RCHA =    33357313.1572                  RCHA =        2137.5000     RCH-1                            
                 CHD =           0.0000                   CHD =           0.0000     CHD-FROM-IBOUND                  

            TOTAL IN =    45318723.7614              TOTAL IN =       43437.8877

          OUT:                                     OUT:
          ----                                     ----
              STO-SS =    22323953.4994                STO-SS =           0.0000     STORAGE                          
              STO-SY =      929662.4369                STO-SY =           0.0000     STORAGE                          
                 WEL =     6275210.8277                   WEL =       20000.0000     WEL-1                            
                RCHA =           0.0000                  RCHA =           0.0000     RCH-1                            
                 CHD =    15789915.4930                   CHD =       23437.8881     CHD-FROM-IBOUND                  

           TOTAL OUT =    45318742.2570             TOTAL OUT =       43437.8881

            IN - OUT =         -18.4957              IN - OUT =      -3.6534E-04

 PERCENT DISCREPANCY =          -0.00     PERCENT DISCREPANCY =          -0.00




         TIME SUMMARY AT END OF TIME STEP    4 IN STRESS PERIOD   24
                    SECONDS     MINUTES      HOURS       DAYS        YEARS
                    -----------------------------------------------------------
   TIME STEP LENGTH 2.71468E+05  4524.5      75.408      3.1420     8.60231E-03
 STRESS PERIOD TIME 8.43311E+05  14055.      234.25      9.7605     2.67229E-02
         TOTAL TIME 5.87313E+07 9.78855E+05  16314.      679.76      1.8611    


end timestep


start timestep kper="24" kstp="5" mode="normal"

 UBDSV1 SAVING     FLOW-JA-FACE ON UNIT   1015 AT TIME STEP      5, STRESS PERIOD     24
 UBDSV06 SAVING              WEL IN MODEL MUMODEL          PACKAGE MUMODEL         CONNECTED TO MODEL MUMODEL          PACKAGE WEL-1            ON UNIT   1015 AT TIME STEP      5, STRESS PERIOD     24
 UBDSV06 SAVING             RCHA IN MODEL MUMODEL          PACKAGE MUMODEL         CONNECTED TO MODEL MUMODEL          PACKAGE RCH-1            ON UNIT   1015 AT TIME STEP      5, STRESS PERIOD     24

 WEL PACKAGE (WEL-1) FLOW RATES   PERIOD     24   STEP        5
 -----------------------------------------------
   NUMBER   CELLID                    RATE      
 -----------------------------------------------
     1      (1,5,5)              -20000.000     
     2      (1,11,5)              0.0000000     
     3      (1,5,5)               0.0000000     
 -----------------------------------------------




 CHD PACKAGE (CHD-FROM-IBOUND) FLOW RATES   PERIOD     24   STEP        5
 -----------------------------------------------
   NUMBER   CELLID                    RATE      
 -----------------------------------------------
     1      (1,1,1)              -1303.4106     
     2      (1,1,2)              -1303.0798     
     3      (1,1,3)              -1301.1950     
     4      (1,1,4)              -1293.9039     
     5      (1,1,5)              -1280.3679     
     6      (1,1,6)              -1293.9051     
     7      (1,1,7)              -1301.1971     
     8      (1,1,8)              -1303.0820     
     9      (1,1,9)              -1303.4127     
     10     (1,21,1)             -1303.4692     
     11     (1,21,2)             -1303.4688     
     12     (1,21,3)             -1303.4682     
     13     (1,21,4)             -1303.4678     
     14     (1,21,5)             -1303.4676     
     15     (1,21,6)             -1303.4679     
     16     (1,21,7)             -1303.4689     
     17     (1,21,8)             -1303.4706     
     18     (1,21,9)             -1303.4720     
 -----------------------------------------------




 HEAD WILL BE SAVED ON UNIT 1016 AT END OF TIME STEP    5, STRESS PERIOD   24


  VOLUME BUDGET FOR ENTIRE MODEL AT END OF TIME STEP    5, STRESS PERIOD  24
  ---------------------------------------------------------------------------------------------------

     CUMULATIVE VOLUME      L**3       RATES FOR THIS TIME STEP      L**3/T          PACKAGE NAME    
     ------------------                 ------------------------                     ----------------

           IN:                                      IN:
           ---                                      ---
              STO-SS =    11613656.7848                STO-SS =       39561.0207     STORAGE                          
              STO-SY =      503385.2845                STO-SY =        1716.2546     STORAGE                          
                 WEL =           0.0000                   WEL =           0.0000     WEL-1                            
                RCHA =    33365372.3679                  RCHA =        2137.5000     RCH-1                            
                 CHD =           0.0000                   CHD =           0.0000     CHD-FROM-IBOUND                  

            TOTAL IN =    45482414.4372              TOTAL IN =       43414.7753

          OUT:                                     OUT:
          ----                                     ----
              STO-SS =    22323953.4994                STO-SS =           0.0000     STORAGE                          
              STO-SY =      929662.4369                STO-SY =           0.0000     STORAGE                          
                 WEL =     6350618.6467                   WEL =       20000.0000     WEL-1                            
                RCHA =           0.0000                  RCHA =           0.0000     RCH-1                            
                 CHD =    15878198.3501                   CHD =       23414.7754     CHD-FROM-IBOUND                  

           TOTAL OUT =    45482432.9331             TOTAL OUT =       43414.7754

            IN - OUT =         -18.4959              IN - OUT =      -6.8720E-05

 PERCENT DISCREPANCY =          -0.00     PERCENT DISCREPANCY =          -0.00




         TIME SUMMARY AT END OF TIME STEP    5 IN STRESS PERIOD   24
                    SECONDS     MINUTES      HOURS       DAYS        YEARS
                    -----------------------------------------------------------
   TIME STEP LENGTH 3.25762E+05  5429.4      90.489      3.7704     1.03228E-02
 STRESS PERIOD TIME 1.16907E+06  19485.      324.74      13.531     3.70457E-02
         TOTAL TIME 5.90571E+07 9.84285E+05  16405.      683.53      1.8714    


end timestep


start timestep kper="24" kstp="6" mode="normal"

 UBDSV1 SAVING     FLOW-JA-FACE ON UNIT   1015 AT TIME STEP      6, STRESS PERIOD     24
 UBDSV06 SAVING              WEL IN MODEL MUMODEL          PACKAGE MUMODEL         CONNECTED TO MODEL MUMODEL          PACKAGE WEL-1            ON UNIT   1015 AT TIME STEP      6, STRESS PERIOD     24
 UBDSV06 SAVING             RCHA IN MODEL MUMODEL          PACKAGE MUMODEL         CONNECTED TO MODEL MUMODEL          PACKAGE RCH-1            ON UNIT   1015 AT TIME STEP      6, STRESS PERIOD     24

 WEL PACKAGE (WEL-1) FLOW RATES   PERIOD     24   STEP        6
 -----------------------------------------------
   NUMBER   CELLID                    RATE      
 -----------------------------------------------
     1      (1,5,5)              -20000.000     
     2      (1,11,5)              0.0000000     
     3      (1,5,5)               0.0000000     
 -----------------------------------------------




 CHD PACKAGE (CHD-FROM-IBOUND) FLOW RATES   PERIOD     24   STEP        6
 -----------------------------------------------
   NUMBER   CELLID                    RATE      
 -----------------------------------------------
     1      (1,1,1)              -1301.9927     
     2      (1,1,2)              -1301.6387     
     3      (1,1,3)              -1299.6459     
     4      (1,1,4)              -1292.0323     
     5      (1,1,5)              -1278.0850     
     6      (1,1,6)              -1292.0335     
     7      (1,1,7)              -1299.6480     
     8      (1,1,8)              -1301.6410     
     9      (1,1,9)              -1301.9947     
     10     (1,21,1)             -1302.0563     
     11     (1,21,2)             -1302.0559     
     12     (1,21,3)             -1302.0554     
     13     (1,21,4)             -1302.0549     
     14     (1,21,5)             -1302.0547     
     15     (1,21,6)             -1302.0551     
     16     (1,21,7)             -1302.0561     
     17     (1,21,8)             -1302.0577     
     18     (1,21,9)             -1302.0591     
 -----------------------------------------------




 HEAD WILL BE SAVED ON UNIT 1016 AT END OF TIME STEP    6, STRESS PERIOD   24


  VOLUME BUDGET FOR ENTIRE MODEL AT END OF TIME STEP    6, STRESS PERIOD  24
  ---------------------------------------------------------------------------------------------------

     CUMULATIVE VOLUME      L**3       RATES FOR THIS TIME STEP      L**3/T          PACKAGE NAME    
     ------------------                 ------------------------                     ----------------

           IN:                                      IN:
           ---                                      ---
              STO-SS =    11792530.3905                STO-SS =       39534.7167     STORAGE                          
              STO-SY =      511144.7503                STO-SY =        1715.0003     STORAGE                          
                 WEL =           0.0000                   WEL =           0.0000     WEL-1                            
                RCHA =    33375043.4206                  RCHA =        2137.5000     RCH-1                            
                 CHD =           0.0000                   CHD =           0.0000     CHD-FROM-IBOUND                  

            TOTAL IN =    45678718.5614              TOTAL IN =       43387.2170

          OUT:                                     OUT:
          ----                                     ----
              STO-SS =    22323953.4994                STO-SS =           0.0000     STORAGE                          
              STO-SY =      929662.4369                STO-SY =           0.0000     STORAGE                          
                 WEL =     6441108.0295                   WEL =       20000.0000     WEL-1                            
                RCHA =           0.0000                  RCHA =           0.0000     RCH-1                            
                 CHD =    15984013.0921                   CHD =       23387.2171     CHD-FROM-IBOUND                  

           TOTAL OUT =    45678737.0579             TOTAL OUT =       43387.2171

            IN - OUT =         -18.4965              IN - OUT =      -1.1886E-04

 PERCENT DISCREPANCY =          -0.00     PERCENT DISCREPANCY =          -0.00




         TIME SUMMARY AT END OF TIME STEP    6 IN STRESS PERIOD   24
                    SECONDS     MINUTES      HOURS       DAYS        YEARS
                    -----------------------------------------------------------
   TIME STEP LENGTH 3.90914E+05  6515.2      108.59      4.5245     1.23873E-02
 STRESS PERIOD TIME 1.55999E+06  26000.      433.33      18.055     4.94330E-02
         TOTAL TIME 5.94480E+07 9.90800E+05  16513.      688.06      1.8838    


end timestep


start timestep kper="24" kstp="7" mode="normal"

 UBDSV1 SAVING     FLOW-JA-FACE ON UNIT   1015 AT TIME STEP      7, STRESS PERIOD     24
 UBDSV06 SAVING              WEL IN MODEL MUMODEL          PACKAGE MUMODEL         CONNECTED TO MODEL MUMODEL          PACKAGE WEL-1            ON UNIT   1015 AT TIME STEP      7, STRESS PERIOD     24
 UBDSV06 SAVING             RCHA IN MODEL MUMODEL          PACKAGE MUMODEL         CONNECTED TO MODEL MUMODEL          PACKAGE RCH-1            ON UNIT   1015 AT TIME STEP      7, STRESS PERIOD     24

 WEL PACKAGE (WEL-1) FLOW RATES   PERIOD     24   STEP        7
 -----------------------------------------------
   NUMBER   CELLID                    RATE      
 -----------------------------------------------
     1      (1,5,5)              -20000.000     
     2      (1,11,5)              0.0000000     
     3      (1,5,5)               0.0000000     
 -----------------------------------------------




 CHD PACKAGE (CHD-FROM-IBOUND) FLOW RATES   PERIOD     24   STEP        7
 -----------------------------------------------
   NUMBER   CELLID                    RATE      
 -----------------------------------------------
     1      (1,1,1)              -1300.3090     
     2      (1,1,2)              -1299.9256     
     3      (1,1,3)              -1297.7974     
     4      (1,1,4)              -1289.7861     
     5      (1,1,5)              -1275.3407     
     6      (1,1,6)              -1289.7873     
     7      (1,1,7)              -1297.7994     
     8      (1,1,8)              -1299.9278     
     9      (1,1,9)              -1300.3110     
     10     (1,21,1)             -1300.3791     
     11     (1,21,2)             -1300.3787     
     12     (1,21,3)             -1300.3782     
     13     (1,21,4)             -1300.3778     
     14     (1,21,5)             -1300.3776     
     15     (1,21,6)             -1300.3779     
     16     (1,21,7)             -1300.3789     
     17     (1,21,8)             -1300.3805     
     18     (1,21,9)             -1300.3819     
 -----------------------------------------------




 HEAD WILL BE SAVED ON UNIT 1016 AT END OF TIME STEP    7, STRESS PERIOD   24


  VOLUME BUDGET FOR ENTIRE MODEL AT END OF TIME STEP    7, STRESS PERIOD  24
  ---------------------------------------------------------------------------------------------------

     CUMULATIVE VOLUME      L**3       RATES FOR THIS TIME STEP      L**3/T          PACKAGE NAME    
     ------------------                 ------------------------                     ----------------

           IN:                                      IN:
           ---                                      ---
              STO-SS =    12007008.6060                STO-SS =       39503.3850     STORAGE                          
              STO-SY =      520448.0169                STO-SY =        1713.5098     STORAGE                          
                 WEL =           0.0000                   WEL =           0.0000     WEL-1                            
                RCHA =    33386648.6840                  RCHA =        2137.5000     RCH-1                            
                 CHD =           0.0000                   CHD =           0.0000     CHD-FROM-IBOUND                  

            TOTAL IN =    45914105.3069              TOTAL IN =       43354.3948

          OUT:                                     OUT:
          ----                                     ----
              STO-SS =    22323953.4994                STO-SS =           0.0000     STORAGE                          
              STO-SY =      929662.4369                STO-SY =           0.0000     STORAGE                          
                 WEL =     6549695.2888                   WEL =       20000.0000     WEL-1                            
                RCHA =           0.0000                  RCHA =           0.0000     RCH-1                            
                 CHD =    16110812.5793                   CHD =       23354.3950     CHD-FROM-IBOUND                  

           TOTAL OUT =    45914123.8044             TOTAL OUT =       43354.3950

            IN - OUT =         -18.4976              IN - OUT =      -1.9711E-04

 PERCENT DISCREPANCY =          -0.00     PERCENT DISCREPANCY =          -0.00




         TIME SUMMARY AT END OF TIME STEP    7 IN STRESS PERIOD   24
                    SECONDS     MINUTES      HOURS       DAYS        YEARS
                    -----------------------------------------------------------
   TIME STEP LENGTH 4.69097E+05  7818.3      130.30      5.4294     1.48648E-02
 STRESS PERIOD TIME 2.02908E+06  33818.      563.63      23.485     6.42978E-02
         TOTAL TIME 5.99171E+07 9.98618E+05  16644.      693.48      1.8987    


end timestep


start timestep kper="24" kstp="8" mode="normal"

 UBDSV1 SAVING     FLOW-JA-FACE ON UNIT   1015 AT TIME STEP      8, STRESS PERIOD     24
 UBDSV06 SAVING              WEL IN MODEL MUMODEL          PACKAGE MUMODEL         CONNECTED TO MODEL MUMODEL          PACKAGE WEL-1            ON UNIT   1015 AT TIME STEP      8, STRESS PERIOD     24
 UBDSV06 SAVING             RCHA IN MODEL MUMODEL          PACKAGE MUMODEL         CONNECTED TO MODEL MUMODEL          PACKAGE RCH-1            ON UNIT   1015 AT TIME STEP      8, STRESS PERIOD     24

 WEL PACKAGE (WEL-1) FLOW RATES   PERIOD     24   STEP        8
 -----------------------------------------------
   NUMBER   CELLID                    RATE      
 -----------------------------------------------
     1      (1,5,5)              -20000.000     
     2      (1,11,5)              0.0000000     
     3      (1,5,5)               0.0000000     
 -----------------------------------------------




 CHD PACKAGE (CHD-FROM-IBOUND) FLOW RATES   PERIOD     24   STEP        8
 -----------------------------------------------
   NUMBER   CELLID                    RATE      
 -----------------------------------------------
     1      (1,1,1)              -1298.3135     
     2      (1,1,2)              -1297.8922     
     3      (1,1,3)              -1295.5932     
     4      (1,1,4)              -1287.0895     
     5      (1,1,5)              -1272.0403     
     6      (1,1,6)              -1287.0907     
     7      (1,1,7)              -1295.5952     
     8      (1,1,8)              -1297.8944     
     9      (1,1,9)              -1298.3155     
     10     (1,21,1)             -1298.3923     
     11     (1,21,2)             -1298.3918     
     12     (1,21,3)             -1298.3913     
     13     (1,21,4)             -1298.3909     
     14     (1,21,5)             -1298.3907     
     15     (1,21,6)             -1298.3911     
     16     (1,21,7)             -1298.3921     
     17     (1,21,8)             -1298.3937     
     18     (1,21,9)             -1298.3951     
 -----------------------------------------------




 HEAD WILL BE SAVED ON UNIT 1016 AT END OF TIME STEP    8, STRESS PERIOD   24


  VOLUME BUDGET FOR ENTIRE MODEL AT END OF TIME STEP    8, STRESS PERIOD  24
  ---------------------------------------------------------------------------------------------------

     CUMULATIVE VOLUME      L**3       RATES FOR THIS TIME STEP      L**3/T          PACKAGE NAME    
     ------------------                 ------------------------                     ----------------

           IN:                                      IN:
           ---                                      ---
              STO-SS =    12264139.6175                STO-SS =       39466.1113     STORAGE                          
              STO-SY =      531600.4181                STO-SY =        1711.7418     STORAGE                          
                 WEL =           0.0000                   WEL =           0.0000     WEL-1                            
                RCHA =    33400575.0000                  RCHA =        2137.5000     RCH-1                            
                 CHD =           0.0000                   CHD =           0.0000     CHD-FROM-IBOUND                  

            TOTAL IN =    46196315.0356              TOTAL IN =       43315.3531

          OUT:                                     OUT:
          ----                                     ----
              STO-SS =    22323953.4994                STO-SS =           0.0000     STORAGE                          
              STO-SY =      929662.4369                STO-SY =           0.0000     STORAGE                          
                 WEL =     6680000.0000                   WEL =       20000.0000     WEL-1                            
                RCHA =           0.0000                  RCHA =           0.0000     RCH-1                            
                 CHD =    16262717.5990                   CHD =       23315.3534     CHD-FROM-IBOUND                  

           TOTAL OUT =    46196333.5353             TOTAL OUT =       43315.3534

            IN - OUT =         -18.4997              IN - OUT =      -3.2672E-04

 PERCENT DISCREPANCY =          -0.00     PERCENT DISCREPANCY =          -0.00




         TIME SUMMARY AT END OF TIME STEP    8 IN STRESS PERIOD   24
                    SECONDS     MINUTES      HOURS       DAYS        YEARS
                    -----------------------------------------------------------
   TIME STEP LENGTH 5.62916E+05  9381.9      156.37      6.5152     1.78377E-02
 STRESS PERIOD TIME 2.59200E+06  43200.      720.00      30.000     8.21355E-02
         TOTAL TIME 6.04800E+07 1.00800E+06  16800.      700.00      1.9165    


end timestep


start timestep kper="25" kstp="1" mode="normal"


 OUTPUT CONTROL FOR STRESS PERIOD 25 IS REPEATED USING SETTINGS FROM A PREVIOUS STRESS PERIOD.


 STRESS PERIOD 25 IS TRANSIENT


 REUSING WELS FROM LAST STRESS PERIOD

                 RECHARGE =  0.5000000E-03

 REUSING CHDS FROM LAST STRESS PERIOD
 UBDSV1 SAVING     FLOW-JA-FACE ON UNIT   1015 AT TIME STEP      1, STRESS PERIOD     25
 UBDSV06 SAVING              WEL IN MODEL MUMODEL          PACKAGE MUMODEL         CONNECTED TO MODEL MUMODEL          PACKAGE WEL-1            ON UNIT   1015 AT TIME STEP      1, STRESS PERIOD     25
 UBDSV06 SAVING             RCHA IN MODEL MUMODEL          PACKAGE MUMODEL         CONNECTED TO MODEL MUMODEL          PACKAGE RCH-1            ON UNIT   1015 AT TIME STEP      1, STRESS PERIOD     25

 WEL PACKAGE (WEL-1) FLOW RATES   PERIOD     25   STEP        1
 -----------------------------------------------
   NUMBER   CELLID                    RATE      
 -----------------------------------------------
     1      (1,5,5)              -20000.000     
     2      (1,11,5)              0.0000000     
     3      (1,5,5)               0.0000000     
 -----------------------------------------------




 CHD PACKAGE (CHD-FROM-IBOUND) FLOW RATES   PERIOD     25   STEP        1
 -----------------------------------------------
   NUMBER   CELLID                    RATE      
 -----------------------------------------------
     1      (1,1,1)              -1298.1413     
     2      (1,1,2)              -1297.7089     
     3      (1,1,3)              -1295.3599     
     4      (1,1,4)              -1286.7129     
     5      (1,1,5)              -1271.4891     
     6      (1,1,6)              -1286.7141     
     7      (1,1,7)              -1295.3619     
     8      (1,1,8)              -1297.7111     
     9      (1,1,9)              -1298.1433     
     10     (1,21,1)             -1298.2226     
     11     (1,21,2)             -1298.2222     
     12     (1,21,3)             -1298.2217     
     13     (1,21,4)             -1298.2213     
     14     (1,21,5)             -1298.2211     
     15     (1,21,6)             -1298.2214     
     16     (1,21,7)             -1298.2225     
     17     (1,21,8)             -1298.2241     
     18     (1,21,9)             -1298.2254     
 -----------------------------------------------




 HEAD WILL BE SAVED ON UNIT 1016 AT END OF TIME STEP    1, STRESS PERIOD   25


  VOLUME BUDGET FOR ENTIRE MODEL AT END OF TIME STEP    1, STRESS PERIOD  25
  ---------------------------------------------------------------------------------------------------

     CUMULATIVE VOLUME      L**3       RATES FOR THIS TIME STEP      L**3/T          PACKAGE NAME    
     ------------------                 ------------------------                     ----------------

           IN:                                      IN:
           ---                                      ---
              STO-SS =    12303588.7415                STO-SS =       20995.9497     STORAGE                          
              STO-SY =      533367.3191                STO-SY =         940.3951     STORAGE                          
                 WEL =           0.0000                   WEL =           0.0000     WEL-1                            
                RCHA =    33440736.3185                  RCHA =       21375.0000     RCH-1                            
                 CHD =           0.0000                   CHD =           0.0000     CHD-FROM-IBOUND                  

            TOTAL IN =    46277692.3791              TOTAL IN =       43311.3448

          OUT:                                     OUT:
          ----                                     ----
              STO-SS =    22323953.4994                STO-SS =           0.0000     STORAGE                          
              STO-SY =      929662.4369                STO-SY =           0.0000     STORAGE                          
                 WEL =     6717577.8419                   WEL =       20000.0000     WEL-1                            
                RCHA =           0.0000                  RCHA =           0.0000     RCH-1                            
                 CHD =    16306517.1007                   CHD =       23311.3449     CHD-FROM-IBOUND                  

           TOTAL OUT =    46277710.8789             TOTAL OUT =       43311.3449

            IN - OUT =         -18.4998              IN - OUT =      -6.4631E-05

 PERCENT DISCREPANCY =          -0.00     PERCENT DISCREPANCY =          -0.00




         TIME SUMMARY AT END OF TIME STEP    1 IN STRESS PERIOD   25
                    SECONDS     MINUTES      HOURS       DAYS        YEARS
                    -----------------------------------------------------------
   TIME STEP LENGTH 1.62336E+05  2705.6      45.093      1.8789     5.14413E-03
 STRESS PERIOD TIME 1.62336E+05  2705.6      45.093      1.8789     5.14413E-03
         TOTAL TIME 6.06423E+07 1.01071E+06  16845.      701.88      1.9216    


end timestep


start timestep kper="25" kstp="2" mode="normal"

 UBDSV1 SAVING     FLOW-JA-FACE ON UNIT   1015 AT TIME STEP      2, STRESS PERIOD     25
 UBDSV06 SAVING              WEL IN MODEL MUMODEL          PACKAGE MUMODEL         CONNECTED TO MODEL MUMODEL          PACKAGE WEL-1            ON UNIT   1015 AT TIME STEP      2, STRESS PERIOD     25
 UBDSV06 SAVING             RCHA IN MODEL MUMODEL          PACKAGE MUMODEL         CONNECTED TO MODEL MUMODEL          PACKAGE RCH-1            ON UNIT   1015 AT TIME STEP      2, STRESS PERIOD     25

 WEL PACKAGE (WEL-1) FLOW RATES   PERIOD     25   STEP        2
 -----------------------------------------------
   NUMBER   CELLID                    RATE      
 -----------------------------------------------
     1      (1,5,5)              -20000.000     
     2      (1,11,5)              0.0000000     
     3      (1,5,5)               0.0000000     
 -----------------------------------------------




 CHD PACKAGE (CHD-FROM-IBOUND) FLOW RATES   PERIOD     25   STEP        2
 -----------------------------------------------
   NUMBER   CELLID                    RATE      
 -----------------------------------------------
     1      (1,1,1)              -1297.9356     
     2      (1,1,2)              -1297.4896     
     3      (1,1,3)              -1295.0796     
     4      (1,1,4)              -1286.2588     
     5      (1,1,5)              -1270.8248     
     6      (1,1,6)              -1286.2600     
     7      (1,1,7)              -1295.0816     
     8      (1,1,8)              -1297.4918     
     9      (1,1,9)              -1297.9376     
     10     (1,21,1)             -1298.0201     
     11     (1,21,2)             -1298.0197     
     12     (1,21,3)             -1298.0191     
     13     (1,21,4)             -1298.0187     
     14     (1,21,5)             -1298.0186     
     15     (1,21,6)             -1298.0189     
     16     (1,21,7)             -1298.0199     
     17     (1,21,8)             -1298.0215     
     18     (1,21,9)             -1298.0229     
 -----------------------------------------------




 HEAD WILL BE SAVED ON UNIT 1016 AT END OF TIME STEP    2, STRESS PERIOD   25


  VOLUME BUDGET FOR ENTIRE MODEL AT END OF TIME STEP    2, STRESS PERIOD  25
  ---------------------------------------------------------------------------------------------------

     CUMULATIVE VOLUME      L**3       RATES FOR THIS TIME STEP      L**3/T          PACKAGE NAME    
     ------------------                 ------------------------                     ----------------

           IN:                                      IN:
           ---                                      ---
              STO-SS =    12350917.4593                STO-SS =       20991.4121     STORAGE                          
              STO-SY =      535486.9950                STO-SY =         940.1267     STORAGE                          
                 WEL =           0.0000                   WEL =           0.0000     WEL-1                            
                RCHA =    33488929.9008                  RCHA =       21375.0000     RCH-1                            
                 CHD =           0.0000                   CHD =           0.0000     CHD-FROM-IBOUND                  

            TOTAL IN =    46375334.3551              TOTAL IN =       43306.5388

          OUT:                                     OUT:
          ----                                     ----
              STO-SS =    22323953.4994                STO-SS =           0.0000     STORAGE                          
              STO-SY =      929662.4369                STO-SY =           0.0000     STORAGE                          
                 WEL =     6762671.2522                   WEL =       20000.0000     WEL-1                            
                RCHA =           0.0000                  RCHA =           0.0000     RCH-1                            
                 CHD =    16359065.6667                   CHD =       23306.5389     CHD-FROM-IBOUND                  

           TOTAL OUT =    46375352.8552             TOTAL OUT =       43306.5389

            IN - OUT =         -18.5001              IN - OUT =      -1.1292E-04

 PERCENT DISCREPANCY =          -0.00     PERCENT DISCREPANCY =          -0.00




         TIME SUMMARY AT END OF TIME STEP    2 IN STRESS PERIOD   25
                    SECONDS     MINUTES      HOURS       DAYS        YEARS
                    -----------------------------------------------------------
   TIME STEP LENGTH 1.94804E+05  3246.7      54.112      2.2547     6.17295E-03
 STRESS PERIOD TIME 3.57140E+05  5952.3      99.206      4.1336     1.13171E-02
         TOTAL TIME 6.08371E+07 1.01395E+06  16899.      704.13      1.9278    


end timestep


start timestep kper="25" kstp="3" mode="normal"

 UBDSV1 SAVING     FLOW-JA-FACE ON UNIT   1015 AT TIME STEP      3, STRESS PERIOD     25
 UBDSV06 SAVING              WEL IN MODEL MUMODEL          PACKAGE MUMODEL         CONNECTED TO MODEL MUMODEL          PACKAGE WEL-1            ON UNIT   1015 AT TIME STEP      3, STRESS PERIOD     25
 UBDSV06 SAVING             RCHA IN MODEL MUMODEL          PACKAGE MUMODEL         CONNECTED TO MODEL MUMODEL          PACKAGE RCH-1            ON UNIT   1015 AT TIME STEP      3, STRESS PERIOD     25

 WEL PACKAGE (WEL-1) FLOW RATES   PERIOD     25   STEP        3
 -----------------------------------------------
   NUMBER   CELLID                    RATE      
 -----------------------------------------------
     1      (1,5,5)              -20000.000     
     2      (1,11,5)              0.0000000     
     3      (1,5,5)               0.0000000     
 -----------------------------------------------




 CHD PACKAGE (CHD-FROM-IBOUND) FLOW RATES   PERIOD     25   STEP        3
 -----------------------------------------------
   NUMBER   CELLID                    RATE      
 -----------------------------------------------
     1      (1,1,1)              -1297.6901     
     2      (1,1,2)              -1297.2272     
     3      (1,1,3)              -1294.7426     
     4      (1,1,4)              -1285.7107     
     5      (1,1,5)              -1270.0235     
     6      (1,1,6)              -1285.7119     
     7      (1,1,7)              -1294.7445     
     8      (1,1,8)              -1297.2294     
     9      (1,1,9)              -1297.6920     
     10     (1,21,1)             -1297.7785     
     11     (1,21,2)             -1297.7780     
     12     (1,21,3)             -1297.7775     
     13     (1,21,4)             -1297.7771     
     14     (1,21,5)             -1297.7770     
     15     (1,21,6)             -1297.7773     
     16     (1,21,7)             -1297.7783     
     17     (1,21,8)             -1297.7799     
     18     (1,21,9)             -1297.7813     
 -----------------------------------------------




 HEAD WILL BE SAVED ON UNIT 1016 AT END OF TIME STEP    3, STRESS PERIOD   25


  VOLUME BUDGET FOR ENTIRE MODEL AT END OF TIME STEP    3, STRESS PERIOD  25
  ---------------------------------------------------------------------------------------------------

     CUMULATIVE VOLUME      L**3       RATES FOR THIS TIME STEP      L**3/T          PACKAGE NAME    
     ------------------                 ------------------------                     ----------------

           IN:                                      IN:
           ---                                      ---
              STO-SS =    12407697.1989                STO-SS =       20985.9708     STORAGE                          
              STO-SY =      538029.7379                STO-SY =         939.8058     STORAGE                          
                 WEL =           0.0000                   WEL =           0.0000     WEL-1                            
                RCHA =    33546762.1994                  RCHA =       21375.0000     RCH-1                            
                 CHD =           0.0000                   CHD =           0.0000     CHD-FROM-IBOUND                  

            TOTAL IN =    46492489.1362              TOTAL IN =       43300.7766

          OUT:                                     OUT:
          ----                                     ----
              STO-SS =    22323953.4994                STO-SS =           0.0000     STORAGE                          
              STO-SY =      929662.4369                STO-SY =           0.0000     STORAGE                          
                 WEL =     6816783.3445                   WEL =       20000.0000     WEL-1                            
                RCHA =           0.0000                  RCHA =           0.0000     RCH-1                            
                 CHD =    16422108.3559                   CHD =       23300.7768     CHD-FROM-IBOUND                  

           TOTAL OUT =    46492507.6367             TOTAL OUT =       43300.7768

            IN - OUT =         -18.5006              IN - OUT =      -1.9126E-04

 PERCENT DISCREPANCY =          -0.00     PERCENT DISCREPANCY =          -0.00




         TIME SUMMARY AT END OF TIME STEP    3 IN STRESS PERIOD   25
                    SECONDS     MINUTES      HOURS       DAYS        YEARS
                    -----------------------------------------------------------
   TIME STEP LENGTH 2.33764E+05  3896.1      64.935      2.7056     7.40754E-03
 STRESS PERIOD TIME 5.90904E+05  9848.4      164.14      6.8392     1.87246E-02
         TOTAL TIME 6.10709E+07 1.01785E+06  16964.      706.84      1.9352    


end timestep


start timestep kper="25" kstp="4" mode="normal"

 UBDSV1 SAVING     FLOW-JA-FACE ON UNIT   1015 AT TIME STEP      4, STRESS PERIOD     25
 UBDSV06 SAVING              WEL IN MODEL MUMODEL          PACKAGE MUMODEL         CONNECTED TO MODEL MUMODEL          PACKAGE WEL-1            ON UNIT   1015 AT TIME STEP      4, STRESS PERIOD     25
 UBDSV06 SAVING             RCHA IN MODEL MUMODEL          PACKAGE MUMODEL         CONNECTED TO MODEL MUMODEL          PACKAGE RCH-1            ON UNIT   1015 AT TIME STEP      4, STRESS PERIOD     25

 WEL PACKAGE (WEL-1) FLOW RATES   PERIOD     25   STEP        4
 -----------------------------------------------
   NUMBER   CELLID                    RATE      
 -----------------------------------------------
     1      (1,5,5)              -20000.000     
     2      (1,11,5)              0.0000000     
     3      (1,5,5)               0.0000000     
 -----------------------------------------------




 CHD PACKAGE (CHD-FROM-IBOUND) FLOW RATES   PERIOD     25   STEP        4
 -----------------------------------------------
   NUMBER   CELLID                    RATE      
 -----------------------------------------------
     1      (1,1,1)              -1297.3972     
     2      (1,1,2)              -1296.9135     
     3      (1,1,3)              -1294.3371     
     4      (1,1,4)              -1285.0482     
     5      (1,1,5)              -1269.0559     
     6      (1,1,6)              -1285.0494     
     7      (1,1,7)              -1294.3391     
     8      (1,1,8)              -1296.9157     
     9      (1,1,9)              -1297.3992     
     10     (1,21,1)             -1297.4905     
     11     (1,21,2)             -1297.4901     
     12     (1,21,3)             -1297.4896     
     13     (1,21,4)             -1297.4892     
     14     (1,21,5)             -1297.4891     
     15     (1,21,6)             -1297.4894     
     16     (1,21,7)             -1297.4904     
     17     (1,21,8)             -1297.4920     
     18     (1,21,9)             -1297.4934     
 -----------------------------------------------




 HEAD WILL BE SAVED ON UNIT 1016 AT END OF TIME STEP    4, STRESS PERIOD   25


  VOLUME BUDGET FOR ENTIRE MODEL AT END OF TIME STEP    4, STRESS PERIOD  25
  ---------------------------------------------------------------------------------------------------

     CUMULATIVE VOLUME      L**3       RATES FOR THIS TIME STEP      L**3/T          PACKAGE NAME    
     ------------------                 ------------------------                     ----------------

           IN:                                      IN:
           ---                                      ---
              STO-SS =    12475811.7037                STO-SS =       20979.4465     STORAGE                          
              STO-SY =      541079.7842                STO-SY =         939.4223     STORAGE                          
                 WEL =           0.0000                   WEL =           0.0000     WEL-1                            
                RCHA =    33616160.9578                  RCHA =       21375.0000     RCH-1                            
                 CHD =           0.0000                   CHD =           0.0000     CHD-FROM-IBOUND                  

            TOTAL IN =    46633052.4458              TOTAL IN =       43293.8688

          OUT:                                     OUT:
          ----                                     ----
              STO-SS =    22323953.4994                STO-SS =           0.0000     STORAGE                          
              STO-SY =      929662.4369                STO-SY =           0.0000     STORAGE                          
                 WEL =     6881717.8553                   WEL =       20000.0000     WEL-1                            
                RCHA =           0.0000                  RCHA =           0.0000     RCH-1                            
                 CHD =    16497737.1558                   CHD =       23293.8691     CHD-FROM-IBOUND                  

           TOTAL OUT =    46633070.9474             TOTAL OUT =       43293.8691

            IN - OUT =         -18.5016              IN - OUT =      -3.2641E-04

 PERCENT DISCREPANCY =          -0.00     PERCENT DISCREPANCY =          -0.00




         TIME SUMMARY AT END OF TIME STEP    4 IN STRESS PERIOD   25
                    SECONDS     MINUTES      HOURS       DAYS        YEARS
                    -----------------------------------------------------------
   TIME STEP LENGTH 2.80517E+05  4675.3      77.921      3.2467     8.88905E-03
 STRESS PERIOD TIME 8.71421E+05  14524.      242.06      10.086     2.76137E-02
         TOTAL TIME 6.13514E+07 1.02252E+06  17042.      710.09      1.9441    


end timestep


start timestep kper="25" kstp="5" mode="normal"

 UBDSV1 SAVING     FLOW-JA-FACE ON UNIT   1015 AT TIME STEP      5, STRESS PERIOD     25
 UBDSV06 SAVING              WEL IN MODEL MUMODEL          PACKAGE MUMODEL         CONNECTED TO MODEL MUMODEL          PACKAGE WEL-1            ON UNIT   1015 AT TIME STEP      5, STRESS PERIOD     25
 UBDSV06 SAVING             RCHA IN MODEL MUMODEL          PACKAGE MUMODEL         CONNECTED TO MODEL MUMODEL          PACKAGE RCH-1            ON UNIT   1015 AT TIME STEP      5, STRESS PERIOD     25

 WEL PACKAGE (WEL-1) FLOW RATES   PERIOD     25   STEP        5
 -----------------------------------------------
   NUMBER   CELLID                    RATE      
 -----------------------------------------------
     1      (1,5,5)              -20000.000     
     2      (1,11,5)              0.0000000     
     3      (1,5,5)               0.0000000     
 -----------------------------------------------




 CHD PACKAGE (CHD-FROM-IBOUND) FLOW RATES   PERIOD     25   STEP        5
 -----------------------------------------------
   NUMBER   CELLID                    RATE      
 -----------------------------------------------
     1      (1,1,1)              -1297.0484     
     2      (1,1,2)              -1296.5387     
     3      (1,1,3)              -1293.8491     
     4      (1,1,4)              -1284.2464     
     5      (1,1,5)              -1267.8861     
     6      (1,1,6)              -1284.2476     
     7      (1,1,7)              -1293.8510     
     8      (1,1,8)              -1296.5408     
     9      (1,1,9)              -1297.0504     
     10     (1,21,1)             -1297.1479     
     11     (1,21,2)             -1297.1475     
     12     (1,21,3)             -1297.1470     
     13     (1,21,4)             -1297.1466     
     14     (1,21,5)             -1297.1465     
     15     (1,21,6)             -1297.1468     
     16     (1,21,7)             -1297.1479     
     17     (1,21,8)             -1297.1494     
     18     (1,21,9)             -1297.1508     
 -----------------------------------------------




 HEAD WILL BE SAVED ON UNIT 1016 AT END OF TIME STEP    5, STRESS PERIOD   25


  VOLUME BUDGET FOR ENTIRE MODEL AT END OF TIME STEP    5, STRESS PERIOD  25
  ---------------------------------------------------------------------------------------------------

     CUMULATIVE VOLUME      L**3       RATES FOR THIS TIME STEP      L**3/T          PACKAGE NAME    
     ------------------                 ------------------------                     ----------------

           IN:                                      IN:
           ---                                      ---
              STO-SS =    12557518.6347                STO-SS =       20971.6246     STORAGE                          
              STO-SY =      544738.0560                STO-SY =         938.9644     STORAGE                          
                 WEL =           0.0000                   WEL =           0.0000     WEL-1                            
                RCHA =    33699439.4679                  RCHA =       21375.0000     RCH-1                            
                 CHD =           0.0000                   CHD =           0.0000     CHD-FROM-IBOUND                  

            TOTAL IN =    46801696.1586              TOTAL IN =       43285.5890

          OUT:                                     OUT:
          ----                                     ----
              STO-SS =    22323953.4994                STO-SS =           0.0000     STORAGE                          
              STO-SY =      929662.4369                STO-SY =           0.0000     STORAGE                          
                 WEL =     6959639.2682                   WEL =       20000.0000     WEL-1                            
                RCHA =           0.0000                  RCHA =           0.0000     RCH-1                            
                 CHD =    16588459.4560                   CHD =       23285.5891     CHD-FROM-IBOUND                  

           TOTAL OUT =    46801714.6605             TOTAL OUT =       43285.5891

            IN - OUT =         -18.5019              IN - OUT =      -6.4003E-05

 PERCENT DISCREPANCY =          -0.00     PERCENT DISCREPANCY =          -0.00




         TIME SUMMARY AT END OF TIME STEP    5 IN STRESS PERIOD   25
                    SECONDS     MINUTES      HOURS       DAYS        YEARS
                    -----------------------------------------------------------
   TIME STEP LENGTH 3.36621E+05  5610.3      93.506      3.8961     1.06669E-02
 STRESS PERIOD TIME 1.20804E+06  20134.      335.57      13.982     3.82805E-02
         TOTAL TIME 6.16880E+07 1.02813E+06  17136.      713.98      1.9548    


end timestep


start timestep kper="25" kstp="6" mode="normal"

 UBDSV1 SAVING     FLOW-JA-FACE ON UNIT   1015 AT TIME STEP      6, STRESS PERIOD     25
 UBDSV06 SAVING              WEL IN MODEL MUMODEL          PACKAGE MUMODEL         CONNECTED TO MODEL MUMODEL          PACKAGE WEL-1            ON UNIT   1015 AT TIME STEP      6, STRESS PERIOD     25
 UBDSV06 SAVING             RCHA IN MODEL MUMODEL          PACKAGE MUMODEL         CONNECTED TO MODEL MUMODEL          PACKAGE RCH-1            ON UNIT   1015 AT TIME STEP      6, STRESS PERIOD     25

 WEL PACKAGE (WEL-1) FLOW RATES   PERIOD     25   STEP        6
 -----------------------------------------------
   NUMBER   CELLID                    RATE      
 -----------------------------------------------
     1      (1,5,5)              -20000.000     
     2      (1,11,5)              0.0000000     
     3      (1,5,5)               0.0000000     
 -----------------------------------------------




 CHD PACKAGE (CHD-FROM-IBOUND) FLOW RATES   PERIOD     25   STEP        6
 -----------------------------------------------
   NUMBER   CELLID                    RATE      
 -----------------------------------------------
     1      (1,1,1)              -1296.6335     
     2      (1,1,2)              -1296.0911     
     3      (1,1,3)              -1293.2611     
     4      (1,1,4)              -1283.2743     
     5      (1,1,5)              -1266.4701     
     6      (1,1,6)              -1283.2755     
     7      (1,1,7)              -1293.2630     
     8      (1,1,8)              -1296.0932     
     9      (1,1,9)              -1296.6354     
     10     (1,21,1)             -1296.7409     
     11     (1,21,2)             -1296.7405     
     12     (1,21,3)             -1296.7400     
     13     (1,21,4)             -1296.7396     
     14     (1,21,5)             -1296.7395     
     15     (1,21,6)             -1296.7399     
     16     (1,21,7)             -1296.7409     
     17     (1,21,8)             -1296.7424     
     18     (1,21,9)             -1296.7438     
 -----------------------------------------------




 HEAD WILL BE SAVED ON UNIT 1016 AT END OF TIME STEP    6, STRESS PERIOD   25


  VOLUME BUDGET FOR ENTIRE MODEL AT END OF TIME STEP    6, STRESS PERIOD  25
  ---------------------------------------------------------------------------------------------------

     CUMULATIVE VOLUME      L**3       RATES FOR THIS TIME STEP      L**3/T          PACKAGE NAME    
     ------------------                 ------------------------                     ----------------

           IN:                                      IN:
           ---                                      ---
              STO-SS =    12655523.1065                STO-SS =       20962.2465     STORAGE                          
              STO-SY =      549125.4284                STO-SY =         938.4182     STORAGE                          
                 WEL =           0.0000                   WEL =           0.0000     WEL-1                            
                RCHA =    33799373.6800                  RCHA =       21375.0000     RCH-1                            
                 CHD =           0.0000                   CHD =           0.0000     CHD-FROM-IBOUND                  

            TOTAL IN =    47004022.2149              TOTAL IN =       43275.6647

          OUT:                                     OUT:
          ----                                     ----
              STO-SS =    22323953.4994                STO-SS =           0.0000     STORAGE                          
              STO-SY =      929662.4369                STO-SY =           0.0000     STORAGE                          
                 WEL =     7053144.9638                   WEL =       20000.0000     WEL-1                            
                RCHA =           0.0000                  RCHA =           0.0000     RCH-1                            
                 CHD =    16697279.8172                   CHD =       23275.6648     CHD-FROM-IBOUND                  

           TOTAL OUT =    47004040.7173             TOTAL OUT =       43275.6648

            IN - OUT =         -18.5024              IN - OUT =      -1.0745E-04

 PERCENT DISCREPANCY =          -0.00     PERCENT DISCREPANCY =          -0.00




         TIME SUMMARY AT END OF TIME STEP    6 IN STRESS PERIOD   25
                    SECONDS     MINUTES      HOURS       DAYS        YEARS
                    -----------------------------------------------------------
   TIME STEP LENGTH 4.03945E+05  6732.4      112.21      4.6753     1.28002E-02
 STRESS PERIOD TIME 1.61199E+06  26866.      447.77      18.657     5.10808E-02
         TOTAL TIME 6.20920E+07 1.03487E+06  17248.      718.66      1.9676    


end timestep


start timestep kper="25" kstp="7" mode="normal"

 UBDSV1 SAVING     FLOW-JA-FACE ON UNIT   1015 AT TIME STEP      7, STRESS PERIOD     25
 UBDSV06 SAVING              WEL IN MODEL MUMODEL          PACKAGE MUMODEL         CONNECTED TO MODEL MUMODEL          PACKAGE WEL-1            ON UNIT   1015 AT TIME STEP      7, STRESS PERIOD     25
 UBDSV06 SAVING             RCHA IN MODEL MUMODEL          PACKAGE MUMODEL         CONNECTED TO MODEL MUMODEL          PACKAGE RCH-1            ON UNIT   1015 AT TIME STEP      7, STRESS PERIOD     25

 WEL PACKAGE (WEL-1) FLOW RATES   PERIOD     25   STEP        7
 -----------------------------------------------
   NUMBER   CELLID                    RATE      
 -----------------------------------------------
     1      (1,5,5)              -20000.000     
     2      (1,11,5)              0.0000000     
     3      (1,5,5)               0.0000000     
 -----------------------------------------------




 CHD PACKAGE (CHD-FROM-IBOUND) FLOW RATES   PERIOD     25   STEP        7
 -----------------------------------------------
   NUMBER   CELLID                    RATE      
 -----------------------------------------------
     1      (1,1,1)              -1296.1406     
     2      (1,1,2)              -1295.5570     
     3      (1,1,3)              -1292.5519     
     4      (1,1,4)              -1282.0934     
     5      (1,1,5)              -1264.7531     
     6      (1,1,6)              -1282.0946     
     7      (1,1,7)              -1292.5538     
     8      (1,1,8)              -1295.5591     
     9      (1,1,9)              -1296.1425     
     10     (1,21,1)             -1296.2583     
     11     (1,21,2)             -1296.2579     
     12     (1,21,3)             -1296.2574     
     13     (1,21,4)             -1296.2571     
     14     (1,21,5)             -1296.2569     
     15     (1,21,6)             -1296.2573     
     16     (1,21,7)             -1296.2583     
     17     (1,21,8)             -1296.2599     
     18     (1,21,9)             -1296.2612     
 -----------------------------------------------




 HEAD WILL BE SAVED ON UNIT 1016 AT END OF TIME STEP    7, STRESS PERIOD   25


  VOLUME BUDGET FOR ENTIRE MODEL AT END OF TIME STEP    7, STRESS PERIOD  25
  ---------------------------------------------------------------------------------------------------

     CUMULATIVE VOLUME      L**3       RATES FOR THIS TIME STEP      L**3/T          PACKAGE NAME    
     ------------------                 ------------------------                     ----------------

           IN:                                      IN:
           ---                                      ---
              STO-SS =    12773065.3926                STO-SS =       20951.0029     STORAGE                          
              STO-SY =      554386.6229                STO-SY =         937.7672     STORAGE                          
                 WEL =           0.0000                   WEL =           0.0000     WEL-1                            
                RCHA =    33919294.7346                  RCHA =       21375.0000     RCH-1                            
                 CHD =           0.0000                   CHD =           0.0000     CHD-FROM-IBOUND                  

            TOTAL IN =    47246746.7500              TOTAL IN =       43263.7701

          OUT:                                     OUT:
          ----                                     ----
              STO-SS =    22323953.4994                STO-SS =           0.0000     STORAGE                          
              STO-SY =      929662.4369                STO-SY =           0.0000     STORAGE                          
                 WEL =     7165351.7984                   WEL =       20000.0000     WEL-1                            
                RCHA =           0.0000                  RCHA =           0.0000     RCH-1                            
                 CHD =    16827797.5187                   CHD =       23263.7703     CHD-FROM-IBOUND                  

           TOTAL OUT =    47246765.2534             TOTAL OUT =       43263.7703

            IN - OUT =         -18.5034              IN - OUT =      -1.7808E-04

 PERCENT DISCREPANCY =          -0.00     PERCENT DISCREPANCY =          -0.00




         TIME SUMMARY AT END OF TIME STEP    7 IN STRESS PERIOD   25
                    SECONDS     MINUTES      HOURS       DAYS        YEARS
                    -----------------------------------------------------------
   TIME STEP LENGTH 4.84734E+05  8078.9      134.65      5.6103     1.53603E-02
 STRESS PERIOD TIME 2.09672E+06  34945.      582.42      24.268     6.64410E-02
         TOTAL TIME 6.25767E+07 1.04295E+06  17382.      724.27      1.9829    


end timestep


start timestep kper="25" kstp="8" mode="normal"

 UBDSV1 SAVING     FLOW-JA-FACE ON UNIT   1015 AT TIME STEP      8, STRESS PERIOD     25
 UBDSV06 SAVING              WEL IN MODEL MUMODEL          PACKAGE MUMODEL         CONNECTED TO MODEL MUMODEL          PACKAGE WEL-1            ON UNIT   1015 AT TIME STEP      8, STRESS PERIOD     25
 UBDSV06 SAVING             RCHA IN MODEL MUMODEL          PACKAGE MUMODEL         CONNECTED TO MODEL MUMODEL          PACKAGE RCH-1            ON UNIT   1015 AT TIME STEP      8, STRESS PERIOD     25

 WEL PACKAGE (WEL-1) FLOW RATES   PERIOD     25   STEP        8
 -----------------------------------------------
   NUMBER   CELLID                    RATE      
 -----------------------------------------------
     1      (1,5,5)              -20000.000     
     2      (1,11,5)              0.0000000     
     3      (1,5,5)               0.0000000     
 -----------------------------------------------




 CHD PACKAGE (CHD-FROM-IBOUND) FLOW RATES   PERIOD     25   STEP        8
 -----------------------------------------------
   NUMBER   CELLID                    RATE      
 -----------------------------------------------
     1      (1,1,1)              -1295.5563     
     2      (1,1,2)              -1294.9200     
     3      (1,1,3)              -1291.6953     
     4      (1,1,4)              -1280.6554     
     5      (1,1,5)              -1262.6677     
     6      (1,1,6)              -1280.6565     
     7      (1,1,7)              -1291.6971     
     8      (1,1,8)              -1294.9220     
     9      (1,1,9)              -1295.5582     
     10     (1,21,1)             -1295.6874     
     11     (1,21,2)             -1295.6870     
     12     (1,21,3)             -1295.6865     
     13     (1,21,4)             -1295.6861     
     14     (1,21,5)             -1295.6860     
     15     (1,21,6)             -1295.6864     
     16     (1,21,7)             -1295.6874     
     17     (1,21,8)             -1295.6889     
     18     (1,21,9)             -1295.6902     
 -----------------------------------------------




 HEAD WILL BE SAVED ON UNIT 1016 AT END OF TIME STEP    8, STRESS PERIOD   25


  VOLUME BUDGET FOR ENTIRE MODEL AT END OF TIME STEP    8, STRESS PERIOD  25
  ---------------------------------------------------------------------------------------------------

     CUMULATIVE VOLUME      L**3       RATES FOR THIS TIME STEP      L**3/T          PACKAGE NAME    
     ------------------                 ------------------------                     ----------------

           IN:                                      IN:
           ---                                      ---
              STO-SS =    12914025.3769                STO-SS =       20937.5220     STORAGE                          
              STO-SY =      560694.8379                STO-SY =         936.9921     STORAGE                          
                 WEL =           0.0000                   WEL =           0.0000     WEL-1                            
                RCHA =    34063200.0000                  RCHA =       21375.0000     RCH-1                            
                 CHD =           0.0000                   CHD =           0.0000     CHD-FROM-IBOUND                  

            TOTAL IN =    47537920.2148              TOTAL IN =       43249.5141

          OUT:                                     OUT:
          ----                                     ----
              STO-SS =    22323953.4994                STO-SS =           0.0000     STORAGE                          
              STO-SY =      929662.4369                STO-SY =           0.0000     STORAGE                          
                 WEL =     7300000.0000                   WEL =       20000.0000     WEL-1                            
                RCHA =           0.0000                  RCHA =           0.0000     RCH-1                            
                 CHD =    16984322.7838                   CHD =       23249.5144     CHD-FROM-IBOUND                  

           TOTAL OUT =    47537938.7202             TOTAL OUT =       43249.5144

            IN - OUT =         -18.5054              IN - OUT =      -2.9340E-04

 PERCENT DISCREPANCY =          -0.00     PERCENT DISCREPANCY =          -0.00




         TIME SUMMARY AT END OF TIME STEP    8 IN STRESS PERIOD   25
                    SECONDS     MINUTES      HOURS       DAYS        YEARS
                    -----------------------------------------------------------
   TIME STEP LENGTH 5.81680E+05  9694.7      161.58      6.7324     1.84323E-02
 STRESS PERIOD TIME 2.67840E+06  44640.      744.00      31.000     8.48734E-02
         TOTAL TIME 6.31584E+07 1.05264E+06  17544.      731.00      2.0014    


end timestep

