                                   MODFLOW 6
                U.S. GEOLOGICAL SURVEY MODULAR HYDROLOGIC MODEL
                          GROUNDWATER FLOW MODEL (GWF)
                            VERSION 6.4.2 06/28/2023

   MODFLOW 6 compiled Jul 05 2023 20:31:54 with Intel(R) Fortran Intel(R) 64
   Compiler Classic for applications running on Intel(R) 64, Version 2021.7.0
                             Build 20220726_000000

This software has been approved for release by the U.S. Geological 
Survey (USGS). Although the software has been subjected to rigorous 
review, the USGS reserves the right to update the software as needed 
pursuant to further analysis and review. No warranty, expressed or 
implied, is made by the USGS or the U.S. Government as to the 
functionality of the software and related material nor shall the 
fact of release constitute any such warranty. Furthermore, the 
software is released on condition that neither the USGS nor the U.S. 
Government shall be held liable for any damages resulting from its 
authorized or unauthorized use. Also refer to the USGS Water 
Resources Software User Rights Notice for complete use, copyright, 
and distribution information.


As a work of the United States Government, this USGS product is 
in the public domain within the United States. You can copy, 
modify, distribute, and perform the work, even for commercial 
purposes, all without asking permission. Additionally, USGS 
waives copyright and related rights in the work worldwide 
through CC0 1.0 Universal Public Domain Dedication 
(https://creativecommons.org/publicdomain/zero/1.0/).

The following GNU Lesser General Public License (LGPL) libraries
are used in this USGS product:

    SPARSKIT version 2.0
      ilut, luson, and qsplit 
      (https://www-users.cse.umn.edu/~saad/software/SPARSKIT/)

    RCM - Reverse Cuthill McKee Ordering
      (https://people.math.sc.edu/Burkardt/f_src/rcm/rcm.html)

    BLAS - Basic Linear Algebra Subprograms Level 1
      (https://people.math.sc.edu/Burkardt/f_src/blas1_d/blas1_d.html)

    SPARSEKIT - Sparse Matrix Utility Package
      amux, dperm, dvperm, rperm, and cperm
      (https://people.sc.fsu.edu/~jburkardt/f77_src/sparsekit/sparsekit.html)

The following BSD-3 License libraries are used in this USGS product:

    Modern Fortran DAG Library
      Copyright (c) 2018, Jacob Williams
      All rights reserved.
      (https://github.com/jacobwilliams/daglib)

MODFLOW 6 compiler options: /O2 /heap-arrays:0 /fpe:0 /traceback /nologo /fpp
/c /module:win64\mod_mf6\ /object:win64\obj_mf6\

System command used to initiate simulation:
C:\A\envs\pyclass\Scripts\mf6.exe

MODFLOW was compiled using uniform precision.

Real Variables
  KIND: 8
  TINY (smallest non-zero value):    2.225074-308
  HUGE (largest value):    1.797693+308
  PRECISION: 15
  SIZE IN BITS: 64

Integer Variables
  KIND: 4
  HUGE (largest value): 2147483647
  SIZE IN BITS: 32

Long Integer Variables
  KIND: 8
  HUGE (largest value): 9223372036854775807
  SIZE IN BITS: 64

Logical Variables
  KIND: 4
  SIZE IN BITS: 32
 
 NAMEFILE OPTIONS:
 END NAMEFILE OPTIONS:

 DIS -- STRUCTURED GRID DISCRETIZATION PACKAGE, VERSION 2 : 3/27/2014 - INPUT READ FROM MEMPATH: __INPUT__/MUMODEL/DIS                             


 NPF -- NODE PROPERTY FLOW PACKAGE, VERSION 1, 3/30/2015 INPUT READ FROM MEMPATH: __INPUT__/MUMODEL/NPF                             

 Setting Discretization Options
    Model length unit [0=UND, 1=FEET, 2=METERS, 3=CENTIMETERS] set as 0
 End Setting Discretization Options

 Setting Discretization Dimensions
    NLAY = 1
    NROW = 21
    NCOL = 9
 End Setting Discretization Dimensions

 Setting Discretization Griddata
    DELR set from input file
    DELC set from input file
    TOP set from input file
    BOTM set from input file
 End Setting Discretization Griddata

 Setting NPF Options
    Cell-by-cell flow information will be saved to binary file whenever ICBCFL is not zero.
    Vertical flow will be adjusted for perched conditions.
    Vertical conductance varies with water table.
    Vertical conductance accounts for dewatered portion of an underlying cell.
 End Setting NPF Options

 Setting NPF Griddata
    ICELLTYPE set from input file
    K set from input file
    K33 not provided.  Setting K33 = K.
    K22 not provided.  Setting K22 = K.
 End Setting NPF Griddata


 WEL   -- WEL PACKAGE, VERSION 8, 2/22/2014 INPUT READ FROM UNIT 1008
 # WEL6 input file, prepared by MF5to6 on 1/30/2024 at 15:47:34.

 PROCESSING WEL OPTIONS
    AUXILIARY WEL VARIABLE: IFACE           
    LISTS OF WEL CELLS WILL BE PRINTED.
    WEL FLOWS WILL BE PRINTED TO LISTING FILE.
    FLOWS WILL BE SAVED TO BUDGET FILE SPECIFIED IN OUTPUT CONTROL
 END OF WEL OPTIONS

 PROCESSING WEL DIMENSIONS
    MAXBOUND =       3
 END OF WEL DIMENSIONS

 RCH   -- RCH PACKAGE, VERSION 8, 2/22/2014 INPUT READ FROM UNIT 1009
 # File generated by Flopy version 3.5.0 on 02/03/2024 at 22:05:11.

 PROCESSING RCH OPTIONS
    RECHARGE INPUT WILL BE READ AS ARRAY(S).
    FLOWS WILL BE SAVED TO BUDGET FILE SPECIFIED IN OUTPUT CONTROL
 END OF RCHA OPTIONS

 CHD   -- CHD PACKAGE, VERSION 8, 2/22/2014 INPUT READ FROM UNIT 1010
 # CHD6 input file, prepared by MF5to6 on 1/30/2024 at 15:47:34.

 PROCESSING CHD OPTIONS
    LISTS OF CHD CELLS WILL BE PRINTED.
    CHD FLOWS WILL BE PRINTED TO LISTING FILE.
 END OF CHD OPTIONS

 PROCESSING CHD DIMENSIONS
    MAXBOUND =      18
 END OF CHD DIMENSIONS

 IC -- INITIAL CONDITIONS PACKAGE, VERSION 8, 3/28/2015 INPUT READ FROM UNIT 1006
 # IC6 input file, prepared by MF5to6 on 1/30/2024 at 15:47:34.
 PROCESSING IC OPTIONS
 END OF IC OPTIONS
 PROCESSING GRIDDATA

     INITIAL HEAD FOR LAYER 1

               1          2          3          4          5          6          7          8          9
 .......................................................................................................
   1   1.000E+03  1.000E+03  1.000E+03  1.000E+03  1.000E+03  1.000E+03  1.000E+03  1.000E+03  1.000E+03
   2   1.100E+03  1.100E+03  1.100E+03  1.100E+03  1.100E+03  1.100E+03  1.100E+03  1.100E+03  1.100E+03
   3   1.100E+03  1.100E+03  1.100E+03  1.100E+03  1.100E+03  1.100E+03  1.100E+03  1.100E+03  1.100E+03
   4   1.100E+03  1.100E+03  1.100E+03  1.100E+03  1.100E+03  1.100E+03  1.100E+03  1.100E+03  1.100E+03
   5   1.100E+03  1.100E+03  1.100E+03  1.100E+03  1.100E+03  1.100E+03  1.100E+03  1.100E+03  1.100E+03
   6   1.100E+03  1.100E+03  1.100E+03  1.100E+03  1.100E+03  1.100E+03  1.100E+03  1.100E+03  1.100E+03
   7   1.100E+03  1.100E+03  1.100E+03  1.100E+03  1.100E+03  1.100E+03  1.100E+03  1.100E+03  1.100E+03
   8   1.100E+03  1.100E+03  1.100E+03  1.100E+03  1.100E+03  1.100E+03  1.100E+03  1.100E+03  1.100E+03
   9   1.100E+03  1.100E+03  1.100E+03  1.100E+03  1.100E+03  1.100E+03  1.100E+03  1.100E+03  1.100E+03
  10   1.100E+03  1.100E+03  1.100E+03  1.100E+03  1.100E+03  1.100E+03  1.100E+03  1.100E+03  1.100E+03
  11   1.100E+03  1.100E+03  1.100E+03  1.100E+03  1.100E+03  1.100E+03  1.100E+03  1.100E+03  1.100E+03
  12   1.100E+03  1.100E+03  1.100E+03  1.100E+03  1.100E+03  1.100E+03  1.100E+03  1.100E+03  1.100E+03
  13   1.100E+03  1.100E+03  1.100E+03  1.100E+03  1.100E+03  1.100E+03  1.100E+03  1.100E+03  1.100E+03
  14   1.100E+03  1.100E+03  1.100E+03  1.100E+03  1.100E+03  1.100E+03  1.100E+03  1.100E+03  1.100E+03
  15   1.100E+03  1.100E+03  1.100E+03  1.100E+03  1.100E+03  1.100E+03  1.100E+03  1.100E+03  1.100E+03
  16   1.100E+03  1.100E+03  1.100E+03  1.100E+03  1.100E+03  1.100E+03  1.100E+03  1.100E+03  1.100E+03
  17   1.100E+03  1.100E+03  1.100E+03  1.100E+03  1.100E+03  1.100E+03  1.100E+03  1.100E+03  1.100E+03
  18   1.100E+03  1.100E+03  1.100E+03  1.100E+03  1.100E+03  1.100E+03  1.100E+03  1.100E+03  1.100E+03
  19   1.100E+03  1.100E+03  1.100E+03  1.100E+03  1.100E+03  1.100E+03  1.100E+03  1.100E+03  1.100E+03
  20   1.100E+03  1.100E+03  1.100E+03  1.100E+03  1.100E+03  1.100E+03  1.100E+03  1.100E+03  1.100E+03
  21   1.000E+03  1.000E+03  1.000E+03  1.000E+03  1.000E+03  1.000E+03  1.000E+03  1.000E+03  1.000E+03
 END PROCESSING GRIDDATA

 STO -- STORAGE PACKAGE, VERSION 1, 5/19/2014 INPUT READ FROM UNIT 1005


 # STO6 input file, prepared by MF5to6 on 1/30/2024 at 15:47:34.
 PROCESSING STORAGE OPTIONS
 END OF STORAGE OPTIONS
 PROCESSING GRIDDATA

                 ICONVERT = 1 FOR LAYER 1

         SPECIFIC STORAGE =  0.1000000     FOR LAYER 1

           SPECIFIC YIELD =  0.1000000     FOR LAYER 1
 END PROCESSING GRIDDATA
    BINARY GRID INFORMATION WILL BE WRITTEN TO:
      UNIT NUMBER: 1014
      FILE NAME: mumodel.dis.grb

 OPENED mumodel.dis.grb
 FILE TYPE:DATA(BINARY)   UNIT 1014   STATUS:REPLACE             
 FORMAT:UNFORMATTED            ACCESS:STREAM              
 ACTION:READWRITE           

      THE LAST TIME STEP WILL BE PRINTED
      THE LAST TIME STEP WILL BE PRINTED
 # OC6 input file, prepared by MF5to6 on 1/30/2024 at 15:47:34.

 PROCESSING OC OPTIONS

    BUDGET INFORMATION WILL BE WRITTEN TO:
      UNIT NUMBER: 1015
      FILE NAME: mumodel_7-2b.cbb

 OPENED mumodel_7-2b.cbb
 FILE TYPE:DATA(BINARY)   UNIT 1015   STATUS:REPLACE             
 FORMAT:UNFORMATTED            ACCESS:STREAM              
 ACTION:READWRITE           

    HEAD INFORMATION WILL BE WRITTEN TO:
      UNIT NUMBER: 1016
      FILE NAME: mumodel_7-2b.hds

 OPENED mumodel_7-2b.hds
 FILE TYPE:DATA(BINARY)   UNIT 1016   STATUS:REPLACE             
 FORMAT:UNFORMATTED            ACCESS:STREAM              
 ACTION:READWRITE           

 END OF OC OPTIONS

start timestep kper="1" kstp="1" mode="normal"


 BEGIN READING OUTPUT CONTROL FOR STRESS PERIOD 1
      ALL TIME STEPS WILL BE SAVED
      ALL TIME STEPS WILL BE PRINTED
      ALL TIME STEPS WILL BE SAVED

 END READING OUTPUT CONTROL FOR STRESS PERIOD 1


 PROCESSING STORAGE PERIOD DATA
 END PROCESSING STORAGE PERIOD DATA


 STRESS PERIOD 1 IS STEADY-STATE

 --------------------------------------------------------------------
  WEL NO.    LAYER    ROW     COL     STRESS RATE         IFACE      
 --------------------------------------------------------------------
     1         1       5       5     0.00000000       0.00000000     
     2         1      11       5     0.00000000       0.00000000     
     3         1       5       5     0.00000000       0.00000000     
 --------------------------------------------------------------------


 ---------------------------------------------------
  CHD NO.    LAYER    ROW     COL         HEAD      
 ---------------------------------------------------
     1         1       1       1     1000.00000     
     2         1       1       2     1000.00000     
     3         1       1       3     1000.00000     
     4         1       1       4     1000.00000     
     5         1       1       5     1000.00000     
     6         1       1       6     1000.00000     
     7         1       1       7     1000.00000     
     8         1       1       8     1000.00000     
     9         1       1       9     1000.00000     
     10        1      21       1     1000.00000     
     11        1      21       2     1000.00000     
     12        1      21       3     1000.00000     
     13        1      21       4     1000.00000     
     14        1      21       5     1000.00000     
     15        1      21       6     1000.00000     
     16        1      21       7     1000.00000     
     17        1      21       8     1000.00000     
     18        1      21       9     1000.00000     
 ---------------------------------------------------


 UBDSV1 SAVING     FLOW-JA-FACE ON UNIT   1015 AT TIME STEP      1, STRESS PERIOD      1
 UBDSV06 SAVING              WEL IN MODEL MUMODEL          PACKAGE MUMODEL         CONNECTED TO MODEL MUMODEL          PACKAGE WEL-1            ON UNIT   1015 AT TIME STEP      1, STRESS PERIOD      1
 UBDSV06 SAVING             RCHA IN MODEL MUMODEL          PACKAGE MUMODEL         CONNECTED TO MODEL MUMODEL          PACKAGE RCH-1            ON UNIT   1015 AT TIME STEP      1, STRESS PERIOD      1

 WEL PACKAGE (WEL-1) FLOW RATES   PERIOD      1   STEP        1
 -----------------------------------------------
   NUMBER   CELLID                    RATE      
 -----------------------------------------------
     1      (1,5,5)               0.0000000     
     2      (1,11,5)              0.0000000     
     3      (1,5,5)               0.0000000     
 -----------------------------------------------




 CHD PACKAGE (CHD-FROM-IBOUND) FLOW RATES   PERIOD      1   STEP        1
 -----------------------------------------------
   NUMBER   CELLID                    RATE      
 -----------------------------------------------
     1      (1,1,1)              -2375.0009     
     2      (1,1,2)              -2375.0067     
     3      (1,1,3)              -2375.0049     
     4      (1,1,4)              -2375.0021     
     5      (1,1,5)              -2374.9999     
     6      (1,1,6)              -2374.9980     
     7      (1,1,7)              -2374.9959     
     8      (1,1,8)              -2374.9931     
     9      (1,1,9)              -2374.9901     
     10     (1,21,1)             -2374.9882     
     11     (1,21,2)             -2374.9935     
     12     (1,21,3)             -2374.9975     
     13     (1,21,4)             -2374.9999     
     14     (1,21,5)             -2375.0022     
     15     (1,21,6)             -2375.0054     
     16     (1,21,7)             -2375.0090     
     17     (1,21,8)             -2375.0101     
     18     (1,21,9)             -2374.9997     
 -----------------------------------------------




 HEAD WILL BE SAVED ON UNIT 1016 AT END OF TIME STEP    1, STRESS PERIOD    1


  VOLUME BUDGET FOR ENTIRE MODEL AT END OF TIME STEP    1, STRESS PERIOD   1
  ---------------------------------------------------------------------------------------------------

     CUMULATIVE VOLUME      L**3       RATES FOR THIS TIME STEP      L**3/T          PACKAGE NAME    
     ------------------                 ------------------------                     ----------------

           IN:                                      IN:
           ---                                      ---
              STO-SS =           0.0000                STO-SS =           0.0000     STORAGE                          
              STO-SY =           0.0000                STO-SY =           0.0000     STORAGE                          
                 WEL =           0.0000                   WEL =           0.0000     WEL-1                            
                RCHA =       42750.0000                  RCHA =       42750.0000     RCH-1                            
                 CHD =           0.0000                   CHD =           0.0000     CHD-FROM-IBOUND                  

            TOTAL IN =       42750.0000              TOTAL IN =       42750.0000

          OUT:                                     OUT:
          ----                                     ----
              STO-SS =           0.0000                STO-SS =           0.0000     STORAGE                          
              STO-SY =           0.0000                STO-SY =           0.0000     STORAGE                          
                 WEL =           0.0000                   WEL =           0.0000     WEL-1                            
                RCHA =           0.0000                  RCHA =           0.0000     RCH-1                            
                 CHD =       42749.9972                   CHD =       42749.9972     CHD-FROM-IBOUND                  

           TOTAL OUT =       42749.9972             TOTAL OUT =       42749.9972

            IN - OUT =       2.8030E-03              IN - OUT =       2.8030E-03

 PERCENT DISCREPANCY =           0.00     PERCENT DISCREPANCY =           0.00




         TIME SUMMARY AT END OF TIME STEP    1 IN STRESS PERIOD    1
                    SECONDS     MINUTES      HOURS       DAYS        YEARS
                    -----------------------------------------------------------
   TIME STEP LENGTH  86400.      1440.0      24.000      1.0000     2.73785E-03
 STRESS PERIOD TIME  86400.      1440.0      24.000      1.0000     2.73785E-03
         TOTAL TIME  86400.      1440.0      24.000      1.0000     2.73785E-03


end timestep


start timestep kper="2" kstp="1" mode="normal"


 END OF FILE DETECTED IN OUTPUT CONTROL.
 CURRENT OUTPUT CONTROL SETTINGS WILL BE 
 REPEATED UNTIL THE END OF THE SIMULATION.

 OUTPUT CONTROL FOR STRESS PERIOD 2 IS REPEATED USING SETTINGS FROM A PREVIOUS STRESS PERIOD.


 PROCESSING STORAGE PERIOD DATA
 END PROCESSING STORAGE PERIOD DATA


 STRESS PERIOD 2 IS TRANSIENT


 REUSING WELS FROM LAST STRESS PERIOD

 REUSING CHDS FROM LAST STRESS PERIOD
 UBDSV1 SAVING     FLOW-JA-FACE ON UNIT   1015 AT TIME STEP      1, STRESS PERIOD      2
 UBDSV06 SAVING              WEL IN MODEL MUMODEL          PACKAGE MUMODEL         CONNECTED TO MODEL MUMODEL          PACKAGE WEL-1            ON UNIT   1015 AT TIME STEP      1, STRESS PERIOD      2
 UBDSV06 SAVING             RCHA IN MODEL MUMODEL          PACKAGE MUMODEL         CONNECTED TO MODEL MUMODEL          PACKAGE RCH-1            ON UNIT   1015 AT TIME STEP      1, STRESS PERIOD      2

 WEL PACKAGE (WEL-1) FLOW RATES   PERIOD      2   STEP        1
 -----------------------------------------------
   NUMBER   CELLID                    RATE      
 -----------------------------------------------
     1      (1,5,5)               0.0000000     
     2      (1,11,5)              0.0000000     
     3      (1,5,5)               0.0000000     
 -----------------------------------------------




 CHD PACKAGE (CHD-FROM-IBOUND) FLOW RATES   PERIOD      2   STEP        1
 -----------------------------------------------
   NUMBER   CELLID                    RATE      
 -----------------------------------------------
     1      (1,1,1)              -2375.8486     
     2      (1,1,2)              -2375.8543     
     3      (1,1,3)              -2375.8527     
     4      (1,1,4)              -2375.8500     
     5      (1,1,5)              -2375.8478     
     6      (1,1,6)              -2375.8460     
     7      (1,1,7)              -2375.8440     
     8      (1,1,8)              -2375.8412     
     9      (1,1,9)              -2375.8383     
     10     (1,21,1)             -2375.8364     
     11     (1,21,2)             -2375.8416     
     12     (1,21,3)             -2375.8455     
     13     (1,21,4)             -2375.8479     
     14     (1,21,5)             -2375.8502     
     15     (1,21,6)             -2375.8534     
     16     (1,21,7)             -2375.8570     
     17     (1,21,8)             -2375.8580     
     18     (1,21,9)             -2375.8477     
 -----------------------------------------------




 HEAD WILL BE SAVED ON UNIT 1016 AT END OF TIME STEP    1, STRESS PERIOD    2


  VOLUME BUDGET FOR ENTIRE MODEL AT END OF TIME STEP    1, STRESS PERIOD   2
  ---------------------------------------------------------------------------------------------------

     CUMULATIVE VOLUME      L**3       RATES FOR THIS TIME STEP      L**3/T          PACKAGE NAME    
     ------------------                 ------------------------                     ----------------

           IN:                                      IN:
           ---                                      ---
              STO-SS =           0.0000                STO-SS =           0.0000     STORAGE                          
              STO-SY =           0.0000                STO-SY =           0.0000     STORAGE                          
                 WEL =           0.0000                   WEL =           0.0000     WEL-1                            
                RCHA =      203395.2741                  RCHA =       85500.0000     RCH-1                            
                 CHD =           0.0000                   CHD =           0.0000     CHD-FROM-IBOUND                  

            TOTAL IN =      203395.2741              TOTAL IN =       85500.0000

          OUT:                                     OUT:
          ----                                     ----
              STO-SS =       77430.9541                STO-SS =       41210.9638     STORAGE                          
              STO-SY =        2863.9782                STO-SY =        1524.2910     STORAGE                          
                 WEL =           0.0000                   WEL =           0.0000     WEL-1                            
                RCHA =           0.0000                  RCHA =           0.0000     RCH-1                            
                 CHD =      123101.3071                   CHD =       42765.2605     CHD-FROM-IBOUND                  

           TOTAL OUT =      203396.2394             TOTAL OUT =       85500.5153

            IN - OUT =          -0.9653              IN - OUT =          -0.5153

 PERCENT DISCREPANCY =          -0.00     PERCENT DISCREPANCY =          -0.00




         TIME SUMMARY AT END OF TIME STEP    1 IN STRESS PERIOD    2
                    SECONDS     MINUTES      HOURS       DAYS        YEARS
                    -----------------------------------------------------------
   TIME STEP LENGTH 1.62336E+05  2705.6      45.093      1.8789     5.14413E-03
 STRESS PERIOD TIME 1.62336E+05  2705.6      45.093      1.8789     5.14413E-03
         TOTAL TIME 2.48736E+05  4145.6      69.093      2.8789     7.88198E-03


end timestep


start timestep kper="2" kstp="2" mode="normal"

 UBDSV1 SAVING     FLOW-JA-FACE ON UNIT   1015 AT TIME STEP      2, STRESS PERIOD      2
 UBDSV06 SAVING              WEL IN MODEL MUMODEL          PACKAGE MUMODEL         CONNECTED TO MODEL MUMODEL          PACKAGE WEL-1            ON UNIT   1015 AT TIME STEP      2, STRESS PERIOD      2
 UBDSV06 SAVING             RCHA IN MODEL MUMODEL          PACKAGE MUMODEL         CONNECTED TO MODEL MUMODEL          PACKAGE RCH-1            ON UNIT   1015 AT TIME STEP      2, STRESS PERIOD      2

 WEL PACKAGE (WEL-1) FLOW RATES   PERIOD      2   STEP        2
 -----------------------------------------------
   NUMBER   CELLID                    RATE      
 -----------------------------------------------
     1      (1,5,5)               0.0000000     
     2      (1,11,5)              0.0000000     
     3      (1,5,5)               0.0000000     
 -----------------------------------------------




 CHD PACKAGE (CHD-FROM-IBOUND) FLOW RATES   PERIOD      2   STEP        2
 -----------------------------------------------
   NUMBER   CELLID                    RATE      
 -----------------------------------------------
     1      (1,1,1)              -2376.9025     
     2      (1,1,2)              -2376.9082     
     3      (1,1,3)              -2376.9066     
     4      (1,1,4)              -2376.9039     
     5      (1,1,5)              -2376.9017     
     6      (1,1,6)              -2376.8999     
     7      (1,1,7)              -2376.8979     
     8      (1,1,8)              -2376.8951     
     9      (1,1,9)              -2376.8922     
     10     (1,21,1)             -2376.8903     
     11     (1,21,2)             -2376.8955     
     12     (1,21,3)             -2376.8994     
     13     (1,21,4)             -2376.9018     
     14     (1,21,5)             -2376.9041     
     15     (1,21,6)             -2376.9073     
     16     (1,21,7)             -2376.9109     
     17     (1,21,8)             -2376.9118     
     18     (1,21,9)             -2376.9016     
 -----------------------------------------------




 HEAD WILL BE SAVED ON UNIT 1016 AT END OF TIME STEP    2, STRESS PERIOD    2


  VOLUME BUDGET FOR ENTIRE MODEL AT END OF TIME STEP    2, STRESS PERIOD   2
  ---------------------------------------------------------------------------------------------------

     CUMULATIVE VOLUME      L**3       RATES FOR THIS TIME STEP      L**3/T          PACKAGE NAME    
     ------------------                 ------------------------                     ----------------

           IN:                                      IN:
           ---                                      ---
              STO-SS =           0.0000                STO-SS =           0.0000     STORAGE                          
              STO-SY =           0.0000                STO-SY =           0.0000     STORAGE                          
                 WEL =           0.0000                   WEL =           0.0000     WEL-1                            
                RCHA =      396169.6030                  RCHA =       85500.0000     RCH-1                            
                 CHD =           0.0000                   CHD =           0.0000     CHD-FROM-IBOUND                  

            TOTAL IN =      396169.6030              TOTAL IN =       85500.0000

          OUT:                                     OUT:
          ----                                     ----
              STO-SS =      170307.4837                STO-SS =       41192.9499     STORAGE                          
              STO-SY =        6298.8265                STO-SY =        1523.4369     STORAGE                          
                 WEL =           0.0000                   WEL =           0.0000     WEL-1                            
                RCHA =           0.0000                  RCHA =           0.0000     RCH-1                            
                 CHD =      219565.6505                   CHD =       42784.2307     CHD-FROM-IBOUND                  

           TOTAL OUT =      396171.9606             TOTAL OUT =       85500.6175

            IN - OUT =          -2.3576              IN - OUT =          -0.6175

 PERCENT DISCREPANCY =          -0.00     PERCENT DISCREPANCY =          -0.00




         TIME SUMMARY AT END OF TIME STEP    2 IN STRESS PERIOD    2
                    SECONDS     MINUTES      HOURS       DAYS        YEARS
                    -----------------------------------------------------------
   TIME STEP LENGTH 1.94804E+05  3246.7      54.112      2.2547     6.17295E-03
 STRESS PERIOD TIME 3.57140E+05  5952.3      99.206      4.1336     1.13171E-02
         TOTAL TIME 4.43540E+05  7392.3      123.21      5.1336     1.40549E-02


end timestep


start timestep kper="2" kstp="3" mode="normal"

 UBDSV1 SAVING     FLOW-JA-FACE ON UNIT   1015 AT TIME STEP      3, STRESS PERIOD      2
 UBDSV06 SAVING              WEL IN MODEL MUMODEL          PACKAGE MUMODEL         CONNECTED TO MODEL MUMODEL          PACKAGE WEL-1            ON UNIT   1015 AT TIME STEP      3, STRESS PERIOD      2
 UBDSV06 SAVING             RCHA IN MODEL MUMODEL          PACKAGE MUMODEL         CONNECTED TO MODEL MUMODEL          PACKAGE RCH-1            ON UNIT   1015 AT TIME STEP      3, STRESS PERIOD      2

 WEL PACKAGE (WEL-1) FLOW RATES   PERIOD      2   STEP        3
 -----------------------------------------------
   NUMBER   CELLID                    RATE      
 -----------------------------------------------
     1      (1,5,5)               0.0000000     
     2      (1,11,5)              0.0000000     
     3      (1,5,5)               0.0000000     
 -----------------------------------------------




 CHD PACKAGE (CHD-FROM-IBOUND) FLOW RATES   PERIOD      2   STEP        3
 -----------------------------------------------
   NUMBER   CELLID                    RATE      
 -----------------------------------------------
     1      (1,1,1)              -2378.2190     
     2      (1,1,2)              -2378.2247     
     3      (1,1,3)              -2378.2232     
     4      (1,1,4)              -2378.2205     
     5      (1,1,5)              -2378.2183     
     6      (1,1,6)              -2378.2165     
     7      (1,1,7)              -2378.2145     
     8      (1,1,8)              -2378.2117     
     9      (1,1,9)              -2378.2088     
     10     (1,21,1)             -2378.2070     
     11     (1,21,2)             -2378.2121     
     12     (1,21,3)             -2378.2160     
     13     (1,21,4)             -2378.2184     
     14     (1,21,5)             -2378.2207     
     15     (1,21,6)             -2378.2239     
     16     (1,21,7)             -2378.2274     
     17     (1,21,8)             -2378.2283     
     18     (1,21,9)             -2378.2182     
 -----------------------------------------------




 HEAD WILL BE SAVED ON UNIT 1016 AT END OF TIME STEP    3, STRESS PERIOD    2


  VOLUME BUDGET FOR ENTIRE MODEL AT END OF TIME STEP    3, STRESS PERIOD   2
  ---------------------------------------------------------------------------------------------------

     CUMULATIVE VOLUME      L**3       RATES FOR THIS TIME STEP      L**3/T          PACKAGE NAME    
     ------------------                 ------------------------                     ----------------

           IN:                                      IN:
           ---                                      ---
              STO-SS =           0.0000                STO-SS =           0.0000     STORAGE                          
              STO-SY =           0.0000                STO-SY =           0.0000     STORAGE                          
                 WEL =           0.0000                   WEL =           0.0000     WEL-1                            
                RCHA =      627498.7977                  RCHA =       85500.0000     RCH-1                            
                 CHD =           0.0000                   CHD =           0.0000     CHD-FROM-IBOUND                  

            TOTAL IN =      627498.7977              TOTAL IN =       85500.0000

          OUT:                                     OUT:
          ----                                     ----
              STO-SS =      281696.4475                STO-SS =       41169.7123     STORAGE                          
              STO-SY =       10417.7269                STO-SY =        1522.3586     STORAGE                          
                 WEL =           0.0000                   WEL =           0.0000     WEL-1                            
                RCHA =           0.0000                  RCHA =           0.0000     RCH-1                            
                 CHD =      335386.9811                   CHD =       42807.9291     CHD-FROM-IBOUND                  

           TOTAL OUT =      627501.1554             TOTAL OUT =       85500.0001

            IN - OUT =          -2.3577              IN - OUT =      -5.1970E-05

 PERCENT DISCREPANCY =          -0.00     PERCENT DISCREPANCY =          -0.00




         TIME SUMMARY AT END OF TIME STEP    3 IN STRESS PERIOD    2
                    SECONDS     MINUTES      HOURS       DAYS        YEARS
                    -----------------------------------------------------------
   TIME STEP LENGTH 2.33764E+05  3896.1      64.935      2.7056     7.40754E-03
 STRESS PERIOD TIME 5.90904E+05  9848.4      164.14      6.8392     1.87246E-02
         TOTAL TIME 6.77304E+05  11288.      188.14      7.8392     2.14625E-02


end timestep


start timestep kper="2" kstp="4" mode="normal"

 UBDSV1 SAVING     FLOW-JA-FACE ON UNIT   1015 AT TIME STEP      4, STRESS PERIOD      2
 UBDSV06 SAVING              WEL IN MODEL MUMODEL          PACKAGE MUMODEL         CONNECTED TO MODEL MUMODEL          PACKAGE WEL-1            ON UNIT   1015 AT TIME STEP      4, STRESS PERIOD      2
 UBDSV06 SAVING             RCHA IN MODEL MUMODEL          PACKAGE MUMODEL         CONNECTED TO MODEL MUMODEL          PACKAGE RCH-1            ON UNIT   1015 AT TIME STEP      4, STRESS PERIOD      2

 WEL PACKAGE (WEL-1) FLOW RATES   PERIOD      2   STEP        4
 -----------------------------------------------
   NUMBER   CELLID                    RATE      
 -----------------------------------------------
     1      (1,5,5)               0.0000000     
     2      (1,11,5)              0.0000000     
     3      (1,5,5)               0.0000000     
 -----------------------------------------------




 CHD PACKAGE (CHD-FROM-IBOUND) FLOW RATES   PERIOD      2   STEP        4
 -----------------------------------------------
   NUMBER   CELLID                    RATE      
 -----------------------------------------------
     1      (1,1,1)              -2379.7315     
     2      (1,1,2)              -2379.7371     
     3      (1,1,3)              -2379.7356     
     4      (1,1,4)              -2379.7330     
     5      (1,1,5)              -2379.7308     
     6      (1,1,6)              -2379.7290     
     7      (1,1,7)              -2379.7269     
     8      (1,1,8)              -2379.7242     
     9      (1,1,9)              -2379.7213     
     10     (1,21,1)             -2379.7195     
     11     (1,21,2)             -2379.7246     
     12     (1,21,3)             -2379.7284     
     13     (1,21,4)             -2379.7308     
     14     (1,21,5)             -2379.7331     
     15     (1,21,6)             -2379.7363     
     16     (1,21,7)             -2379.7398     
     17     (1,21,8)             -2379.7406     
     18     (1,21,9)             -2379.7306     
 -----------------------------------------------




 HEAD WILL BE SAVED ON UNIT 1016 AT END OF TIME STEP    4, STRESS PERIOD    2


  VOLUME BUDGET FOR ENTIRE MODEL AT END OF TIME STEP    4, STRESS PERIOD   2
  ---------------------------------------------------------------------------------------------------

     CUMULATIVE VOLUME      L**3       RATES FOR THIS TIME STEP      L**3/T          PACKAGE NAME    
     ------------------                 ------------------------                     ----------------

           IN:                                      IN:
           ---                                      ---
              STO-SS =           0.0000                STO-SS =           0.0000     STORAGE                          
              STO-SY =           0.0000                STO-SY =           0.0000     STORAGE                          
                 WEL =           0.0000                   WEL =           0.0000     WEL-1                            
                RCHA =      905093.8313                  RCHA =       85500.0000     RCH-1                            
                 CHD =           0.0000                   CHD =           0.0000     CHD-FROM-IBOUND                  

            TOTAL IN =      905093.8313              TOTAL IN =       85500.0000

          OUT:                                     OUT:
          ----                                     ----
              STO-SS =      415278.8005                STO-SS =       41143.7159     STORAGE                          
              STO-SY =       15356.4228                STO-SY =        1521.1313     STORAGE                          
                 WEL =           0.0000                   WEL =           0.0000     WEL-1                            
                RCHA =           0.0000                  RCHA =           0.0000     RCH-1                            
                 CHD =      474460.9661                   CHD =       42835.1529     CHD-FROM-IBOUND                  

           TOTAL OUT =      905096.1894             TOTAL OUT =       85500.0001

            IN - OUT =          -2.3580              IN - OUT =      -8.8481E-05

 PERCENT DISCREPANCY =          -0.00     PERCENT DISCREPANCY =          -0.00




         TIME SUMMARY AT END OF TIME STEP    4 IN STRESS PERIOD    2
                    SECONDS     MINUTES      HOURS       DAYS        YEARS
                    -----------------------------------------------------------
   TIME STEP LENGTH 2.80517E+05  4675.3      77.921      3.2467     8.88905E-03
 STRESS PERIOD TIME 8.71421E+05  14524.      242.06      10.086     2.76137E-02
         TOTAL TIME 9.57821E+05  15964.      266.06      11.086     3.03515E-02


end timestep


start timestep kper="2" kstp="5" mode="normal"

 UBDSV1 SAVING     FLOW-JA-FACE ON UNIT   1015 AT TIME STEP      5, STRESS PERIOD      2
 UBDSV06 SAVING              WEL IN MODEL MUMODEL          PACKAGE MUMODEL         CONNECTED TO MODEL MUMODEL          PACKAGE WEL-1            ON UNIT   1015 AT TIME STEP      5, STRESS PERIOD      2
 UBDSV06 SAVING             RCHA IN MODEL MUMODEL          PACKAGE MUMODEL         CONNECTED TO MODEL MUMODEL          PACKAGE RCH-1            ON UNIT   1015 AT TIME STEP      5, STRESS PERIOD      2

 WEL PACKAGE (WEL-1) FLOW RATES   PERIOD      2   STEP        5
 -----------------------------------------------
   NUMBER   CELLID                    RATE      
 -----------------------------------------------
     1      (1,5,5)               0.0000000     
     2      (1,11,5)              0.0000000     
     3      (1,5,5)               0.0000000     
 -----------------------------------------------




 CHD PACKAGE (CHD-FROM-IBOUND) FLOW RATES   PERIOD      2   STEP        5
 -----------------------------------------------
   NUMBER   CELLID                    RATE      
 -----------------------------------------------
     1      (1,1,1)              -2381.5335     
     2      (1,1,2)              -2381.5390     
     3      (1,1,3)              -2381.5375     
     4      (1,1,4)              -2381.5349     
     5      (1,1,5)              -2381.5328     
     6      (1,1,6)              -2381.5310     
     7      (1,1,7)              -2381.5289     
     8      (1,1,8)              -2381.5262     
     9      (1,1,9)              -2381.5233     
     10     (1,21,1)             -2381.5216     
     11     (1,21,2)             -2381.5267     
     12     (1,21,3)             -2381.5304     
     13     (1,21,4)             -2381.5328     
     14     (1,21,5)             -2381.5351     
     15     (1,21,6)             -2381.5382     
     16     (1,21,7)             -2381.5417     
     17     (1,21,8)             -2381.5424     
     18     (1,21,9)             -2381.5326     
 -----------------------------------------------




 HEAD WILL BE SAVED ON UNIT 1016 AT END OF TIME STEP    5, STRESS PERIOD    2


  VOLUME BUDGET FOR ENTIRE MODEL AT END OF TIME STEP    5, STRESS PERIOD   2
  ---------------------------------------------------------------------------------------------------

     CUMULATIVE VOLUME      L**3       RATES FOR THIS TIME STEP      L**3/T          PACKAGE NAME    
     ------------------                 ------------------------                     ----------------

           IN:                                      IN:
           ---                                      ---
              STO-SS =           0.0000                STO-SS =           0.0000     STORAGE                          
              STO-SY =           0.0000                STO-SY =           0.0000     STORAGE                          
                 WEL =           0.0000                   WEL =           0.0000     WEL-1                            
                RCHA =     1238207.8717                  RCHA =       85500.0000     RCH-1                            
                 CHD =           0.0000                   CHD =           0.0000     CHD-FROM-IBOUND                  

            TOTAL IN =     1238207.8717              TOTAL IN =       85500.0000

          OUT:                                     OUT:
          ----                                     ----
              STO-SS =      575456.9482                STO-SS =       41112.7421     STORAGE                          
              STO-SY =       21277.1627                STO-SY =        1519.6696     STORAGE                          
                 WEL =           0.0000                   WEL =           0.0000     WEL-1                            
                RCHA =           0.0000                  RCHA =           0.0000     RCH-1                            
                 CHD =      641476.1194                   CHD =       42867.5885     CHD-FROM-IBOUND                  

           TOTAL OUT =     1238210.2303             TOTAL OUT =       85500.0001

            IN - OUT =          -2.3586              IN - OUT =      -1.4636E-04

 PERCENT DISCREPANCY =          -0.00     PERCENT DISCREPANCY =          -0.00




         TIME SUMMARY AT END OF TIME STEP    5 IN STRESS PERIOD    2
                    SECONDS     MINUTES      HOURS       DAYS        YEARS
                    -----------------------------------------------------------
   TIME STEP LENGTH 3.36621E+05  5610.3      93.506      3.8961     1.06669E-02
 STRESS PERIOD TIME 1.20804E+06  20134.      335.57      13.982     3.82805E-02
         TOTAL TIME 1.29444E+06  21574.      359.57      14.982     4.10184E-02


end timestep


start timestep kper="2" kstp="6" mode="normal"

 UBDSV1 SAVING     FLOW-JA-FACE ON UNIT   1015 AT TIME STEP      6, STRESS PERIOD      2
 UBDSV06 SAVING              WEL IN MODEL MUMODEL          PACKAGE MUMODEL         CONNECTED TO MODEL MUMODEL          PACKAGE WEL-1            ON UNIT   1015 AT TIME STEP      6, STRESS PERIOD      2
 UBDSV06 SAVING             RCHA IN MODEL MUMODEL          PACKAGE MUMODEL         CONNECTED TO MODEL MUMODEL          PACKAGE RCH-1            ON UNIT   1015 AT TIME STEP      6, STRESS PERIOD      2

 WEL PACKAGE (WEL-1) FLOW RATES   PERIOD      2   STEP        6
 -----------------------------------------------
   NUMBER   CELLID                    RATE      
 -----------------------------------------------
     1      (1,5,5)               0.0000000     
     2      (1,11,5)              0.0000000     
     3      (1,5,5)               0.0000000     
 -----------------------------------------------




 CHD PACKAGE (CHD-FROM-IBOUND) FLOW RATES   PERIOD      2   STEP        6
 -----------------------------------------------
   NUMBER   CELLID                    RATE      
 -----------------------------------------------
     1      (1,1,1)              -2383.6775     
     2      (1,1,2)              -2383.6829     
     3      (1,1,3)              -2383.6815     
     4      (1,1,4)              -2383.6790     
     5      (1,1,5)              -2383.6768     
     6      (1,1,6)              -2383.6750     
     7      (1,1,7)              -2383.6730     
     8      (1,1,8)              -2383.6703     
     9      (1,1,9)              -2383.6674     
     10     (1,21,1)             -2383.6658     
     11     (1,21,2)             -2383.6708     
     12     (1,21,3)             -2383.6745     
     13     (1,21,4)             -2383.6769     
     14     (1,21,5)             -2383.6791     
     15     (1,21,6)             -2383.6822     
     16     (1,21,7)             -2383.6856     
     17     (1,21,8)             -2383.6862     
     18     (1,21,9)             -2383.6767     
 -----------------------------------------------




 HEAD WILL BE SAVED ON UNIT 1016 AT END OF TIME STEP    6, STRESS PERIOD    2


  VOLUME BUDGET FOR ENTIRE MODEL AT END OF TIME STEP    6, STRESS PERIOD   2
  ---------------------------------------------------------------------------------------------------

     CUMULATIVE VOLUME      L**3       RATES FOR THIS TIME STEP      L**3/T          PACKAGE NAME    
     ------------------                 ------------------------                     ----------------

           IN:                                      IN:
           ---                                      ---
              STO-SS =           0.0000                STO-SS =           0.0000     STORAGE                          
              STO-SY =           0.0000                STO-SY =           0.0000     STORAGE                          
                 WEL =           0.0000                   WEL =           0.0000     WEL-1                            
                RCHA =     1637944.7201                  RCHA =       85500.0000     RCH-1                            
                 CHD =           0.0000                   CHD =           0.0000     CHD-FROM-IBOUND                  

            TOTAL IN =     1637944.7201              TOTAL IN =       85500.0000

          OUT:                                     OUT:
          ----                                     ----
              STO-SS =      767498.4213                STO-SS =       41075.8878     STORAGE                          
              STO-SY =       28373.9226                STO-SY =        1517.9310     STORAGE                          
                 WEL =           0.0000                   WEL =           0.0000     WEL-1                            
                RCHA =           0.0000                  RCHA =           0.0000     RCH-1                            
                 CHD =      842074.7360                   CHD =       42906.1814     CHD-FROM-IBOUND                  

           TOTAL OUT =     1637947.0799             TOTAL OUT =       85500.0002

            IN - OUT =          -2.3598              IN - OUT =      -2.4664E-04

 PERCENT DISCREPANCY =          -0.00     PERCENT DISCREPANCY =          -0.00




         TIME SUMMARY AT END OF TIME STEP    6 IN STRESS PERIOD    2
                    SECONDS     MINUTES      HOURS       DAYS        YEARS
                    -----------------------------------------------------------
   TIME STEP LENGTH 4.03945E+05  6732.4      112.21      4.6753     1.28002E-02
 STRESS PERIOD TIME 1.61199E+06  26866.      447.77      18.657     5.10808E-02
         TOTAL TIME 1.69839E+06  28306.      471.77      19.657     5.38186E-02


end timestep


start timestep kper="2" kstp="7" mode="normal"

 UBDSV1 SAVING     FLOW-JA-FACE ON UNIT   1015 AT TIME STEP      7, STRESS PERIOD      2
 UBDSV06 SAVING              WEL IN MODEL MUMODEL          PACKAGE MUMODEL         CONNECTED TO MODEL MUMODEL          PACKAGE WEL-1            ON UNIT   1015 AT TIME STEP      7, STRESS PERIOD      2
 UBDSV06 SAVING             RCHA IN MODEL MUMODEL          PACKAGE MUMODEL         CONNECTED TO MODEL MUMODEL          PACKAGE RCH-1            ON UNIT   1015 AT TIME STEP      7, STRESS PERIOD      2

 WEL PACKAGE (WEL-1) FLOW RATES   PERIOD      2   STEP        7
 -----------------------------------------------
   NUMBER   CELLID                    RATE      
 -----------------------------------------------
     1      (1,5,5)               0.0000000     
     2      (1,11,5)              0.0000000     
     3      (1,5,5)               0.0000000     
 -----------------------------------------------




 CHD PACKAGE (CHD-FROM-IBOUND) FLOW RATES   PERIOD      2   STEP        7
 -----------------------------------------------
   NUMBER   CELLID                    RATE      
 -----------------------------------------------
     1      (1,1,1)              -2386.2246     
     2      (1,1,2)              -2386.2298     
     3      (1,1,3)              -2386.2285     
     4      (1,1,4)              -2386.2260     
     5      (1,1,5)              -2386.2239     
     6      (1,1,6)              -2386.2221     
     7      (1,1,7)              -2386.2201     
     8      (1,1,8)              -2386.2173     
     9      (1,1,9)              -2386.2145     
     10     (1,21,1)             -2386.2130     
     11     (1,21,2)             -2386.2179     
     12     (1,21,3)             -2386.2216     
     13     (1,21,4)             -2386.2239     
     14     (1,21,5)             -2386.2262     
     15     (1,21,6)             -2386.2292     
     16     (1,21,7)             -2386.2325     
     17     (1,21,8)             -2386.2330     
     18     (1,21,9)             -2386.2237     
 -----------------------------------------------




 HEAD WILL BE SAVED ON UNIT 1016 AT END OF TIME STEP    7, STRESS PERIOD    2


  VOLUME BUDGET FOR ENTIRE MODEL AT END OF TIME STEP    7, STRESS PERIOD   2
  ---------------------------------------------------------------------------------------------------

     CUMULATIVE VOLUME      L**3       RATES FOR THIS TIME STEP      L**3/T          PACKAGE NAME    
     ------------------                 ------------------------                     ----------------

           IN:                                      IN:
           ---                                      ---
              STO-SS =           0.0000                STO-SS =           0.0000     STORAGE                          
              STO-SY =           0.0000                STO-SY =           0.0000     STORAGE                          
                 WEL =           0.0000                   WEL =           0.0000     WEL-1                            
                RCHA =     2117628.9383                  RCHA =       85500.0000     RCH-1                            
                 CHD =           0.0000                   CHD =           0.0000     CHD-FROM-IBOUND                  

            TOTAL IN =     2117628.9383              TOTAL IN =       85500.0000

          OUT:                                     OUT:
          ----                                     ----
              STO-SS =      997702.5581                STO-SS =       41032.1060     STORAGE                          
              STO-SY =       36878.4533                STO-SY =        1515.8668     STORAGE                          
                 WEL =           0.0000                   WEL =           0.0000     WEL-1                            
                RCHA =           0.0000                  RCHA =           0.0000     RCH-1                            
                 CHD =     1083050.2890                   CHD =       42952.0276     CHD-FROM-IBOUND                  

           TOTAL OUT =     2117631.3003             TOTAL OUT =       85500.0004

            IN - OUT =          -2.3621              IN - OUT =      -4.1478E-04

 PERCENT DISCREPANCY =          -0.00     PERCENT DISCREPANCY =          -0.00




         TIME SUMMARY AT END OF TIME STEP    7 IN STRESS PERIOD    2
                    SECONDS     MINUTES      HOURS       DAYS        YEARS
                    -----------------------------------------------------------
   TIME STEP LENGTH 4.84734E+05  8078.9      134.65      5.6103     1.53603E-02
 STRESS PERIOD TIME 2.09672E+06  34945.      582.42      24.268     6.64410E-02
         TOTAL TIME 2.18312E+06  36385.      606.42      25.268     6.91789E-02


end timestep


start timestep kper="2" kstp="8" mode="normal"

 UBDSV1 SAVING     FLOW-JA-FACE ON UNIT   1015 AT TIME STEP      8, STRESS PERIOD      2
 UBDSV06 SAVING              WEL IN MODEL MUMODEL          PACKAGE MUMODEL         CONNECTED TO MODEL MUMODEL          PACKAGE WEL-1            ON UNIT   1015 AT TIME STEP      8, STRESS PERIOD      2
 UBDSV06 SAVING             RCHA IN MODEL MUMODEL          PACKAGE MUMODEL         CONNECTED TO MODEL MUMODEL          PACKAGE RCH-1            ON UNIT   1015 AT TIME STEP      8, STRESS PERIOD      2

 WEL PACKAGE (WEL-1) FLOW RATES   PERIOD      2   STEP        8
 -----------------------------------------------
   NUMBER   CELLID                    RATE      
 -----------------------------------------------
     1      (1,5,5)               0.0000000     
     2      (1,11,5)              0.0000000     
     3      (1,5,5)               0.0000000     
 -----------------------------------------------




 CHD PACKAGE (CHD-FROM-IBOUND) FLOW RATES   PERIOD      2   STEP        8
 -----------------------------------------------
   NUMBER   CELLID                    RATE      
 -----------------------------------------------
     1      (1,1,1)              -2389.2447     
     2      (1,1,2)              -2389.2498     
     3      (1,1,3)              -2389.2486     
     4      (1,1,4)              -2389.2461     
     5      (1,1,5)              -2389.2440     
     6      (1,1,6)              -2389.2422     
     7      (1,1,7)              -2389.2402     
     8      (1,1,8)              -2389.2375     
     9      (1,1,9)              -2389.2347     
     10     (1,21,1)             -2389.2332     
     11     (1,21,2)             -2389.2381     
     12     (1,21,3)             -2389.2417     
     13     (1,21,4)             -2389.2440     
     14     (1,21,5)             -2389.2463     
     15     (1,21,6)             -2389.2493     
     16     (1,21,7)             -2389.2525     
     17     (1,21,8)             -2389.2529     
     18     (1,21,9)             -2389.2438     
 -----------------------------------------------




 HEAD WILL BE SAVED ON UNIT 1016 AT END OF TIME STEP    8, STRESS PERIOD    2


  VOLUME BUDGET FOR ENTIRE MODEL AT END OF TIME STEP    8, STRESS PERIOD   2
  ---------------------------------------------------------------------------------------------------

     CUMULATIVE VOLUME      L**3       RATES FOR THIS TIME STEP      L**3/T          PACKAGE NAME    
     ------------------                 ------------------------                     ----------------

           IN:                                      IN:
           ---                                      ---
              STO-SS =           0.0000                STO-SS =           0.0000     STORAGE                          
              STO-SY =           0.0000                STO-SY =           0.0000     STORAGE                          
                 WEL =           0.0000                   WEL =           0.0000     WEL-1                            
                RCHA =     2693250.0000                  RCHA =       85500.0000     RCH-1                            
                 CHD =           0.0000                   CHD =           0.0000     CHD-FROM-IBOUND                  

            TOTAL IN =     2693250.0000              TOTAL IN =       85500.0000

          OUT:                                     OUT:
          ----                                     ----
              STO-SS =     1273598.0071                STO-SS =       40980.1907     STORAGE                          
              STO-SY =       47067.4208                STO-SY =        1513.4205     STORAGE                          
                 WEL =           0.0000                   WEL =           0.0000     WEL-1                            
                RCHA =           0.0000                  RCHA =           0.0000     RCH-1                            
                 CHD =     1372586.9388                   CHD =       43006.3895     CHD-FROM-IBOUND                  

           TOTAL OUT =     2693252.3667             TOTAL OUT =       85500.0007

            IN - OUT =          -2.3667              IN - OUT =      -6.9033E-04

 PERCENT DISCREPANCY =          -0.00     PERCENT DISCREPANCY =          -0.00




         TIME SUMMARY AT END OF TIME STEP    8 IN STRESS PERIOD    2
                    SECONDS     MINUTES      HOURS       DAYS        YEARS
                    -----------------------------------------------------------
   TIME STEP LENGTH 5.81680E+05  9694.7      161.58      6.7324     1.84323E-02
 STRESS PERIOD TIME 2.67840E+06  44640.      744.00      31.000     8.48734E-02
         TOTAL TIME 2.76480E+06  46080.      768.00      32.000     8.76112E-02


end timestep


start timestep kper="3" kstp="1" mode="normal"


 OUTPUT CONTROL FOR STRESS PERIOD 3 IS REPEATED USING SETTINGS FROM A PREVIOUS STRESS PERIOD.


 STRESS PERIOD 3 IS TRANSIENT


 REUSING WELS FROM LAST STRESS PERIOD

 REUSING CHDS FROM LAST STRESS PERIOD
 UBDSV1 SAVING     FLOW-JA-FACE ON UNIT   1015 AT TIME STEP      1, STRESS PERIOD      3
 UBDSV06 SAVING              WEL IN MODEL MUMODEL          PACKAGE MUMODEL         CONNECTED TO MODEL MUMODEL          PACKAGE WEL-1            ON UNIT   1015 AT TIME STEP      1, STRESS PERIOD      3
 UBDSV06 SAVING             RCHA IN MODEL MUMODEL          PACKAGE MUMODEL         CONNECTED TO MODEL MUMODEL          PACKAGE RCH-1            ON UNIT   1015 AT TIME STEP      1, STRESS PERIOD      3

 WEL PACKAGE (WEL-1) FLOW RATES   PERIOD      3   STEP        1
 -----------------------------------------------
   NUMBER   CELLID                    RATE      
 -----------------------------------------------
     1      (1,5,5)               0.0000000     
     2      (1,11,5)              0.0000000     
     3      (1,5,5)               0.0000000     
 -----------------------------------------------




 CHD PACKAGE (CHD-FROM-IBOUND) FLOW RATES   PERIOD      3   STEP        1
 -----------------------------------------------
   NUMBER   CELLID                    RATE      
 -----------------------------------------------
     1      (1,1,1)              -2393.2155     
     2      (1,1,2)              -2393.2206     
     3      (1,1,3)              -2393.2194     
     4      (1,1,4)              -2393.2169     
     5      (1,1,5)              -2393.2148     
     6      (1,1,6)              -2393.2131     
     7      (1,1,7)              -2393.2111     
     8      (1,1,8)              -2393.2084     
     9      (1,1,9)              -2393.2055     
     10     (1,21,1)             -2393.2041     
     11     (1,21,2)             -2393.2090     
     12     (1,21,3)             -2393.2126     
     13     (1,21,4)             -2393.2149     
     14     (1,21,5)             -2393.2171     
     15     (1,21,6)             -2393.2201     
     16     (1,21,7)             -2393.2233     
     17     (1,21,8)             -2393.2237     
     18     (1,21,9)             -2393.2147     
 -----------------------------------------------




 HEAD WILL BE SAVED ON UNIT 1016 AT END OF TIME STEP    1, STRESS PERIOD    3


  VOLUME BUDGET FOR ENTIRE MODEL AT END OF TIME STEP    1, STRESS PERIOD   3
  ---------------------------------------------------------------------------------------------------

     CUMULATIVE VOLUME      L**3       RATES FOR THIS TIME STEP      L**3/T          PACKAGE NAME    
     ------------------                 ------------------------                     ----------------

           IN:                                      IN:
           ---                                      ---
              STO-SS =           0.0000                STO-SS =           0.0000     STORAGE                          
              STO-SY =           0.0000                STO-SY =           0.0000     STORAGE                          
                 WEL =           0.0000                   WEL =           0.0000     WEL-1                            
                RCHA =     3128546.8717                  RCHA =      256500.0000     RCH-1                            
                 CHD =           0.0000                   CHD =           0.0000     CHD-FROM-IBOUND                  

            TOTAL IN =     3128546.8717              TOTAL IN =      256500.0000

          OUT:                                     OUT:
          ----                                     ----
              STO-SS =     1622879.0385                STO-SS =      205814.9056     STORAGE                          
              STO-SY =       59977.3753                STO-SY =        7607.2298     STORAGE                          
                 WEL =           0.0000                   WEL =           0.0000     WEL-1                            
                RCHA =           0.0000                  RCHA =           0.0000     RCH-1                            
                 CHD =     1445692.8248                   CHD =       43077.8647     CHD-FROM-IBOUND                  

           TOTAL OUT =     3128549.2386             TOTAL OUT =      256500.0001

            IN - OUT =          -2.3668              IN - OUT =      -6.4160E-05

 PERCENT DISCREPANCY =          -0.00     PERCENT DISCREPANCY =          -0.00




         TIME SUMMARY AT END OF TIME STEP    1 IN STRESS PERIOD    3
                    SECONDS     MINUTES      HOURS       DAYS        YEARS
                    -----------------------------------------------------------
   TIME STEP LENGTH 1.46626E+05  2443.8      40.730      1.6971     4.64631E-03
 STRESS PERIOD TIME 1.46626E+05  2443.8      40.730      1.6971     4.64631E-03
         TOTAL TIME 2.91143E+06  48524.      808.73      33.697     9.22575E-02


end timestep


start timestep kper="3" kstp="2" mode="normal"

 UBDSV1 SAVING     FLOW-JA-FACE ON UNIT   1015 AT TIME STEP      2, STRESS PERIOD      3
 UBDSV06 SAVING              WEL IN MODEL MUMODEL          PACKAGE MUMODEL         CONNECTED TO MODEL MUMODEL          PACKAGE WEL-1            ON UNIT   1015 AT TIME STEP      2, STRESS PERIOD      3
 UBDSV06 SAVING             RCHA IN MODEL MUMODEL          PACKAGE MUMODEL         CONNECTED TO MODEL MUMODEL          PACKAGE RCH-1            ON UNIT   1015 AT TIME STEP      2, STRESS PERIOD      3

 WEL PACKAGE (WEL-1) FLOW RATES   PERIOD      3   STEP        2
 -----------------------------------------------
   NUMBER   CELLID                    RATE      
 -----------------------------------------------
     1      (1,5,5)               0.0000000     
     2      (1,11,5)              0.0000000     
     3      (1,5,5)               0.0000000     
 -----------------------------------------------




 CHD PACKAGE (CHD-FROM-IBOUND) FLOW RATES   PERIOD      3   STEP        2
 -----------------------------------------------
   NUMBER   CELLID                    RATE      
 -----------------------------------------------
     1      (1,1,1)              -2397.9624     
     2      (1,1,2)              -2397.9674     
     3      (1,1,3)              -2397.9663     
     4      (1,1,4)              -2397.9639     
     5      (1,1,5)              -2397.9617     
     6      (1,1,6)              -2397.9600     
     7      (1,1,7)              -2397.9580     
     8      (1,1,8)              -2397.9553     
     9      (1,1,9)              -2397.9525     
     10     (1,21,1)             -2397.9511     
     11     (1,21,2)             -2397.9559     
     12     (1,21,3)             -2397.9595     
     13     (1,21,4)             -2397.9618     
     14     (1,21,5)             -2397.9640     
     15     (1,21,6)             -2397.9670     
     16     (1,21,7)             -2397.9702     
     17     (1,21,8)             -2397.9705     
     18     (1,21,9)             -2397.9616     
 -----------------------------------------------




 HEAD WILL BE SAVED ON UNIT 1016 AT END OF TIME STEP    2, STRESS PERIOD    3


  VOLUME BUDGET FOR ENTIRE MODEL AT END OF TIME STEP    2, STRESS PERIOD   3
  ---------------------------------------------------------------------------------------------------

     CUMULATIVE VOLUME      L**3       RATES FOR THIS TIME STEP      L**3/T          PACKAGE NAME    
     ------------------                 ------------------------                     ----------------

           IN:                                      IN:
           ---                                      ---
              STO-SS =           0.0000                STO-SS =           0.0000     STORAGE                          
              STO-SY =           0.0000                STO-SY =           0.0000     STORAGE                          
                 WEL =           0.0000                   WEL =           0.0000     WEL-1                            
                RCHA =     3650903.1178                  RCHA =      256500.0000     RCH-1                            
                 CHD =           0.0000                   CHD =           0.0000     CHD-FROM-IBOUND                  

            TOTAL IN =     3650903.1178              TOTAL IN =      256500.0000

          OUT:                                     OUT:
          ----                                     ----
              STO-SS =     2041851.6172                STO-SS =      205734.0507     STORAGE                          
              STO-SY =       75459.9743                STO-SY =        7602.6403     STORAGE                          
                 WEL =           0.0000                   WEL =           0.0000     WEL-1                            
                RCHA =           0.0000                  RCHA =           0.0000     RCH-1                            
                 CHD =     1533593.8935                   CHD =       43163.3091     CHD-FROM-IBOUND                  

           TOTAL OUT =     3650905.4849             TOTAL OUT =      256500.0001

            IN - OUT =          -2.3671              IN - OUT =      -1.1465E-04

 PERCENT DISCREPANCY =          -0.00     PERCENT DISCREPANCY =          -0.00




         TIME SUMMARY AT END OF TIME STEP    2 IN STRESS PERIOD    3
                    SECONDS     MINUTES      HOURS       DAYS        YEARS
                    -----------------------------------------------------------
   TIME STEP LENGTH 1.75952E+05  2932.5      48.875      2.0365     5.57557E-03
 STRESS PERIOD TIME 3.22578E+05  5376.3      89.605      3.7335     1.02219E-02
         TOTAL TIME 3.08738E+06  51456.      857.60      35.734     9.78331E-02


end timestep


start timestep kper="3" kstp="3" mode="normal"

 UBDSV1 SAVING     FLOW-JA-FACE ON UNIT   1015 AT TIME STEP      3, STRESS PERIOD      3
 UBDSV06 SAVING              WEL IN MODEL MUMODEL          PACKAGE MUMODEL         CONNECTED TO MODEL MUMODEL          PACKAGE WEL-1            ON UNIT   1015 AT TIME STEP      3, STRESS PERIOD      3
 UBDSV06 SAVING             RCHA IN MODEL MUMODEL          PACKAGE MUMODEL         CONNECTED TO MODEL MUMODEL          PACKAGE RCH-1            ON UNIT   1015 AT TIME STEP      3, STRESS PERIOD      3

 WEL PACKAGE (WEL-1) FLOW RATES   PERIOD      3   STEP        3
 -----------------------------------------------
   NUMBER   CELLID                    RATE      
 -----------------------------------------------
     1      (1,5,5)               0.0000000     
     2      (1,11,5)              0.0000000     
     3      (1,5,5)               0.0000000     
 -----------------------------------------------




 CHD PACKAGE (CHD-FROM-IBOUND) FLOW RATES   PERIOD      3   STEP        3
 -----------------------------------------------
   NUMBER   CELLID                    RATE      
 -----------------------------------------------
     1      (1,1,1)              -2403.6330     
     2      (1,1,2)              -2403.6379     
     3      (1,1,3)              -2403.6368     
     4      (1,1,4)              -2403.6344     
     5      (1,1,5)              -2403.6323     
     6      (1,1,6)              -2403.6305     
     7      (1,1,7)              -2403.6285     
     8      (1,1,8)              -2403.6259     
     9      (1,1,9)              -2403.6231     
     10     (1,21,1)             -2403.6217     
     11     (1,21,2)             -2403.6265     
     12     (1,21,3)             -2403.6301     
     13     (1,21,4)             -2403.6323     
     14     (1,21,5)             -2403.6346     
     15     (1,21,6)             -2403.6375     
     16     (1,21,7)             -2403.6407     
     17     (1,21,8)             -2403.6409     
     18     (1,21,9)             -2403.6322     
 -----------------------------------------------




 HEAD WILL BE SAVED ON UNIT 1016 AT END OF TIME STEP    3, STRESS PERIOD    3


  VOLUME BUDGET FOR ENTIRE MODEL AT END OF TIME STEP    3, STRESS PERIOD   3
  ---------------------------------------------------------------------------------------------------

     CUMULATIVE VOLUME      L**3       RATES FOR THIS TIME STEP      L**3/T          PACKAGE NAME    
     ------------------                 ------------------------                     ----------------

           IN:                                      IN:
           ---                                      ---
              STO-SS =           0.0000                STO-SS =           0.0000     STORAGE                          
              STO-SY =           0.0000                STO-SY =           0.0000     STORAGE                          
                 WEL =           0.0000                   WEL =           0.0000     WEL-1                            
                RCHA =     4277730.6131                  RCHA =      256500.0000     RCH-1                            
                 CHD =           0.0000                   CHD =           0.0000     CHD-FROM-IBOUND                  

            TOTAL IN =     4277730.6131              TOTAL IN =      256500.0000

          OUT:                                     OUT:
          ----                                     ----
              STO-SS =     2544382.6758                STO-SS =      205637.4641     STORAGE                          
              STO-SY =       94025.6936                STO-SY =        7597.1572     STORAGE                          
                 WEL =           0.0000                   WEL =           0.0000     WEL-1                            
                RCHA =           0.0000                  RCHA =           0.0000     RCH-1                            
                 CHD =     1639324.6113                   CHD =       43265.3790     CHD-FROM-IBOUND                  

           TOTAL OUT =     4277732.9807             TOTAL OUT =      256500.0002

            IN - OUT =          -2.3675              IN - OUT =      -1.9363E-04

 PERCENT DISCREPANCY =          -0.00     PERCENT DISCREPANCY =          -0.00




         TIME SUMMARY AT END OF TIME STEP    3 IN STRESS PERIOD    3
                    SECONDS     MINUTES      HOURS       DAYS        YEARS
                    -----------------------------------------------------------
   TIME STEP LENGTH 2.11142E+05  3519.0      58.651      2.4438     6.69068E-03
 STRESS PERIOD TIME 5.33720E+05  8895.3      148.26      6.1773     1.69126E-02
         TOTAL TIME 3.29852E+06  54975.      916.26      38.177     0.10452    


end timestep


start timestep kper="3" kstp="4" mode="normal"

 UBDSV1 SAVING     FLOW-JA-FACE ON UNIT   1015 AT TIME STEP      4, STRESS PERIOD      3
 UBDSV06 SAVING              WEL IN MODEL MUMODEL          PACKAGE MUMODEL         CONNECTED TO MODEL MUMODEL          PACKAGE WEL-1            ON UNIT   1015 AT TIME STEP      4, STRESS PERIOD      3
 UBDSV06 SAVING             RCHA IN MODEL MUMODEL          PACKAGE MUMODEL         CONNECTED TO MODEL MUMODEL          PACKAGE RCH-1            ON UNIT   1015 AT TIME STEP      4, STRESS PERIOD      3

 WEL PACKAGE (WEL-1) FLOW RATES   PERIOD      3   STEP        4
 -----------------------------------------------
   NUMBER   CELLID                    RATE      
 -----------------------------------------------
     1      (1,5,5)               0.0000000     
     2      (1,11,5)              0.0000000     
     3      (1,5,5)               0.0000000     
 -----------------------------------------------




 CHD PACKAGE (CHD-FROM-IBOUND) FLOW RATES   PERIOD      3   STEP        4
 -----------------------------------------------
   NUMBER   CELLID                    RATE      
 -----------------------------------------------
     1      (1,1,1)              -2410.4010     
     2      (1,1,2)              -2410.4059     
     3      (1,1,3)              -2410.4048     
     4      (1,1,4)              -2410.4024     
     5      (1,1,5)              -2410.4003     
     6      (1,1,6)              -2410.3985     
     7      (1,1,7)              -2410.3965     
     8      (1,1,8)              -2410.3939     
     9      (1,1,9)              -2410.3911     
     10     (1,21,1)             -2410.3898     
     11     (1,21,2)             -2410.3945     
     12     (1,21,3)             -2410.3981     
     13     (1,21,4)             -2410.4003     
     14     (1,21,5)             -2410.4025     
     15     (1,21,6)             -2410.4055     
     16     (1,21,7)             -2410.4086     
     17     (1,21,8)             -2410.4088     
     18     (1,21,9)             -2410.4001     
 -----------------------------------------------




 HEAD WILL BE SAVED ON UNIT 1016 AT END OF TIME STEP    4, STRESS PERIOD    3


  VOLUME BUDGET FOR ENTIRE MODEL AT END OF TIME STEP    4, STRESS PERIOD   3
  ---------------------------------------------------------------------------------------------------

     CUMULATIVE VOLUME      L**3       RATES FOR THIS TIME STEP      L**3/T          PACKAGE NAME    
     ------------------                 ------------------------                     ----------------

           IN:                                      IN:
           ---                                      ---
              STO-SS =           0.0000                STO-SS =           0.0000     STORAGE                          
              STO-SY =           0.0000                STO-SY =           0.0000     STORAGE                          
                 WEL =           0.0000                   WEL =           0.0000     WEL-1                            
                RCHA =     5029923.6075                  RCHA =      256500.0000     RCH-1                            
                 CHD =           0.0000                   CHD =           0.0000     CHD-FROM-IBOUND                  

            TOTAL IN =     5029923.6075              TOTAL IN =      256500.0000

          OUT:                                     OUT:
          ----                                     ----
              STO-SS =     3147081.8893                STO-SS =      205522.1857     STORAGE                          
              STO-SY =      116285.3629                STO-SY =        7590.6120     STORAGE                          
                 WEL =           0.0000                   WEL =           0.0000     WEL-1                            
                RCHA =           0.0000                  RCHA =           0.0000     RCH-1                            
                 CHD =     1766558.7239                   CHD =       43387.2026     CHD-FROM-IBOUND                  

           TOTAL OUT =     5029925.9760             TOTAL OUT =      256500.0003

            IN - OUT =          -2.3685              IN - OUT =      -3.2623E-04

 PERCENT DISCREPANCY =          -0.00     PERCENT DISCREPANCY =          -0.00




         TIME SUMMARY AT END OF TIME STEP    4 IN STRESS PERIOD    3
                    SECONDS     MINUTES      HOURS       DAYS        YEARS
                    -----------------------------------------------------------
   TIME STEP LENGTH 2.53370E+05  4222.8      70.381      2.9325     8.02882E-03
 STRESS PERIOD TIME 7.87090E+05  13118.      218.64      9.1098     2.49414E-02
         TOTAL TIME 3.55189E+06  59198.      986.64      41.110     0.11255    


end timestep


start timestep kper="3" kstp="5" mode="normal"

 UBDSV1 SAVING     FLOW-JA-FACE ON UNIT   1015 AT TIME STEP      5, STRESS PERIOD      3
 UBDSV06 SAVING              WEL IN MODEL MUMODEL          PACKAGE MUMODEL         CONNECTED TO MODEL MUMODEL          PACKAGE WEL-1            ON UNIT   1015 AT TIME STEP      5, STRESS PERIOD      3
 UBDSV06 SAVING             RCHA IN MODEL MUMODEL          PACKAGE MUMODEL         CONNECTED TO MODEL MUMODEL          PACKAGE RCH-1            ON UNIT   1015 AT TIME STEP      5, STRESS PERIOD      3

 WEL PACKAGE (WEL-1) FLOW RATES   PERIOD      3   STEP        5
 -----------------------------------------------
   NUMBER   CELLID                    RATE      
 -----------------------------------------------
     1      (1,5,5)               0.0000000     
     2      (1,11,5)              0.0000000     
     3      (1,5,5)               0.0000000     
 -----------------------------------------------




 CHD PACKAGE (CHD-FROM-IBOUND) FLOW RATES   PERIOD      3   STEP        5
 -----------------------------------------------
   NUMBER   CELLID                    RATE      
 -----------------------------------------------
     1      (1,1,1)              -2418.4704     
     2      (1,1,2)              -2418.4752     
     3      (1,1,3)              -2418.4742     
     4      (1,1,4)              -2418.4718     
     5      (1,1,5)              -2418.4697     
     6      (1,1,6)              -2418.4680     
     7      (1,1,7)              -2418.4660     
     8      (1,1,8)              -2418.4634     
     9      (1,1,9)              -2418.4606     
     10     (1,21,1)             -2418.4593     
     11     (1,21,2)             -2418.4640     
     12     (1,21,3)             -2418.4676     
     13     (1,21,4)             -2418.4698     
     14     (1,21,5)             -2418.4720     
     15     (1,21,6)             -2418.4749     
     16     (1,21,7)             -2418.4780     
     17     (1,21,8)             -2418.4782     
     18     (1,21,9)             -2418.4696     
 -----------------------------------------------




 HEAD WILL BE SAVED ON UNIT 1016 AT END OF TIME STEP    5, STRESS PERIOD    3


  VOLUME BUDGET FOR ENTIRE MODEL AT END OF TIME STEP    5, STRESS PERIOD   3
  ---------------------------------------------------------------------------------------------------

     CUMULATIVE VOLUME      L**3       RATES FOR THIS TIME STEP      L**3/T          PACKAGE NAME    
     ------------------                 ------------------------                     ----------------

           IN:                                      IN:
           ---                                      ---
              STO-SS =           0.0000                STO-SS =           0.0000     STORAGE                          
              STO-SY =           0.0000                STO-SY =           0.0000     STORAGE                          
                 WEL =           0.0000                   WEL =           0.0000     WEL-1                            
                RCHA =     5932555.2007                  RCHA =      256500.0000     RCH-1                            
                 CHD =           0.0000                   CHD =           0.0000     CHD-FROM-IBOUND                  

            TOTAL IN =     5932555.2007              TOTAL IN =      256500.0000

          OUT:                                     OUT:
          ----                                     ----
              STO-SS =     3869837.2725                STO-SS =      205384.7408     STORAGE                          
              STO-SY =      142969.4996                STO-SY =        7582.8069     STORAGE                          
                 WEL =           0.0000                   WEL =           0.0000     WEL-1                            
                RCHA =           0.0000                  RCHA =           0.0000     RCH-1                            
                 CHD =     1919750.7991                   CHD =       43532.4529     CHD-FROM-IBOUND                  

           TOTAL OUT =     5932557.5712             TOTAL OUT =      256500.0006

            IN - OUT =          -2.3705              IN - OUT =      -5.6060E-04

 PERCENT DISCREPANCY =          -0.00     PERCENT DISCREPANCY =          -0.00




         TIME SUMMARY AT END OF TIME STEP    5 IN STRESS PERIOD    3
                    SECONDS     MINUTES      HOURS       DAYS        YEARS
                    -----------------------------------------------------------
   TIME STEP LENGTH 3.04044E+05  5067.4      84.457      3.5190     9.63458E-03
 STRESS PERIOD TIME 1.09113E+06  18186.      303.09      12.629     3.45760E-02
         TOTAL TIME 3.85593E+06  64266.      1071.1      44.629     0.12219    


end timestep


start timestep kper="3" kstp="6" mode="normal"

 UBDSV1 SAVING     FLOW-JA-FACE ON UNIT   1015 AT TIME STEP      6, STRESS PERIOD      3
 UBDSV06 SAVING              WEL IN MODEL MUMODEL          PACKAGE MUMODEL         CONNECTED TO MODEL MUMODEL          PACKAGE WEL-1            ON UNIT   1015 AT TIME STEP      6, STRESS PERIOD      3
 UBDSV06 SAVING             RCHA IN MODEL MUMODEL          PACKAGE MUMODEL         CONNECTED TO MODEL MUMODEL          PACKAGE RCH-1            ON UNIT   1015 AT TIME STEP      6, STRESS PERIOD      3

 WEL PACKAGE (WEL-1) FLOW RATES   PERIOD      3   STEP        6
 -----------------------------------------------
   NUMBER   CELLID                    RATE      
 -----------------------------------------------
     1      (1,5,5)               0.0000000     
     2      (1,11,5)              0.0000000     
     3      (1,5,5)               0.0000000     
 -----------------------------------------------




 CHD PACKAGE (CHD-FROM-IBOUND) FLOW RATES   PERIOD      3   STEP        6
 -----------------------------------------------
   NUMBER   CELLID                    RATE      
 -----------------------------------------------
     1      (1,1,1)              -2428.0799     
     2      (1,1,2)              -2428.0846     
     3      (1,1,3)              -2428.0836     
     4      (1,1,4)              -2428.0813     
     5      (1,1,5)              -2428.0792     
     6      (1,1,6)              -2428.0775     
     7      (1,1,7)              -2428.0755     
     8      (1,1,8)              -2428.0729     
     9      (1,1,9)              -2428.0701     
     10     (1,21,1)             -2428.0689     
     11     (1,21,2)             -2428.0735     
     12     (1,21,3)             -2428.0771     
     13     (1,21,4)             -2428.0793     
     14     (1,21,5)             -2428.0815     
     15     (1,21,6)             -2428.0844     
     16     (1,21,7)             -2428.0874     
     17     (1,21,8)             -2428.0875     
     18     (1,21,9)             -2428.0791     
 -----------------------------------------------




 HEAD WILL BE SAVED ON UNIT 1016 AT END OF TIME STEP    6, STRESS PERIOD    3


  VOLUME BUDGET FOR ENTIRE MODEL AT END OF TIME STEP    6, STRESS PERIOD   3
  ---------------------------------------------------------------------------------------------------

     CUMULATIVE VOLUME      L**3       RATES FOR THIS TIME STEP      L**3/T          PACKAGE NAME    
     ------------------                 ------------------------                     ----------------

           IN:                                      IN:
           ---                                      ---
              STO-SS =           0.0000                STO-SS =           0.0000     STORAGE                          
              STO-SY =           0.0000                STO-SY =           0.0000     STORAGE                          
                 WEL =           0.0000                   WEL =           0.0000     WEL-1                            
                RCHA =     7015713.1126                  RCHA =      256500.0000     RCH-1                            
                 CHD =           0.0000                   CHD =           0.0000     CHD-FROM-IBOUND                  

            TOTAL IN =     7015713.1126              TOTAL IN =      256500.0000

          OUT:                                     OUT:
          ----                                     ----
              STO-SS =     4736452.5663                STO-SS =      205221.0674     STORAGE                          
              STO-SY =      174951.2061                STO-SY =        7573.5104     STORAGE                          
                 WEL =           0.0000                   WEL =           0.0000     WEL-1                            
                RCHA =           0.0000                  RCHA =           0.0000     RCH-1                            
                 CHD =     2104311.7147                   CHD =       43705.4231     CHD-FROM-IBOUND                  

           TOTAL OUT =     7015715.4871             TOTAL OUT =      256500.0009

            IN - OUT =          -2.3745              IN - OUT =      -9.4870E-04

 PERCENT DISCREPANCY =          -0.00     PERCENT DISCREPANCY =          -0.00




         TIME SUMMARY AT END OF TIME STEP    6 IN STRESS PERIOD    3
                    SECONDS     MINUTES      HOURS       DAYS        YEARS
                    -----------------------------------------------------------
   TIME STEP LENGTH 3.64853E+05  6080.9      101.35      4.2228     1.15615E-02
 STRESS PERIOD TIME 1.45599E+06  24266.      404.44      16.852     4.61375E-02
         TOTAL TIME 4.22079E+06  70346.      1172.4      48.852     0.13375    


end timestep


start timestep kper="3" kstp="7" mode="normal"

 UBDSV1 SAVING     FLOW-JA-FACE ON UNIT   1015 AT TIME STEP      7, STRESS PERIOD      3
 UBDSV06 SAVING              WEL IN MODEL MUMODEL          PACKAGE MUMODEL         CONNECTED TO MODEL MUMODEL          PACKAGE WEL-1            ON UNIT   1015 AT TIME STEP      7, STRESS PERIOD      3
 UBDSV06 SAVING             RCHA IN MODEL MUMODEL          PACKAGE MUMODEL         CONNECTED TO MODEL MUMODEL          PACKAGE RCH-1            ON UNIT   1015 AT TIME STEP      7, STRESS PERIOD      3

 WEL PACKAGE (WEL-1) FLOW RATES   PERIOD      3   STEP        7
 -----------------------------------------------
   NUMBER   CELLID                    RATE      
 -----------------------------------------------
     1      (1,5,5)               0.0000000     
     2      (1,11,5)              0.0000000     
     3      (1,5,5)               0.0000000     
 -----------------------------------------------




 CHD PACKAGE (CHD-FROM-IBOUND) FLOW RATES   PERIOD      3   STEP        7
 -----------------------------------------------
   NUMBER   CELLID                    RATE      
 -----------------------------------------------
     1      (1,1,1)              -2439.5068     
     2      (1,1,2)              -2439.5114     
     3      (1,1,3)              -2439.5105     
     4      (1,1,4)              -2439.5082     
     5      (1,1,5)              -2439.5061     
     6      (1,1,6)              -2439.5044     
     7      (1,1,7)              -2439.5025     
     8      (1,1,8)              -2439.4998     
     9      (1,1,9)              -2439.4971     
     10     (1,21,1)             -2439.4959     
     11     (1,21,2)             -2439.5005     
     12     (1,21,3)             -2439.5040     
     13     (1,21,4)             -2439.5062     
     14     (1,21,5)             -2439.5084     
     15     (1,21,6)             -2439.5112     
     16     (1,21,7)             -2439.5142     
     17     (1,21,8)             -2439.5142     
     18     (1,21,9)             -2439.5060     
 -----------------------------------------------




 HEAD WILL BE SAVED ON UNIT 1016 AT END OF TIME STEP    7, STRESS PERIOD    3


  VOLUME BUDGET FOR ENTIRE MODEL AT END OF TIME STEP    7, STRESS PERIOD   3
  ---------------------------------------------------------------------------------------------------

     CUMULATIVE VOLUME      L**3       RATES FOR THIS TIME STEP      L**3/T          PACKAGE NAME    
     ------------------                 ------------------------                     ----------------

           IN:                                      IN:
           ---                                      ---
              STO-SS =           0.0000                STO-SS =           0.0000     STORAGE                          
              STO-SY =           0.0000                STO-SY =           0.0000     STORAGE                          
                 WEL =           0.0000                   WEL =           0.0000     WEL-1                            
                RCHA =     8315502.6069                  RCHA =      256500.0000     RCH-1                            
                 CHD =           0.0000                   CHD =           0.0000     CHD-FROM-IBOUND                  

            TOTAL IN =     8315502.6069              TOTAL IN =      256500.0000

          OUT:                                     OUT:
          ----                                     ----
              STO-SS =     5775404.6685                STO-SS =      205026.4411     STORAGE                          
              STO-SY =      213273.2213                STO-SY =        7562.4530     STORAGE                          
                 WEL =           0.0000                   WEL =           0.0000     WEL-1                            
                RCHA =           0.0000                  RCHA =           0.0000     RCH-1                            
                 CHD =     2326827.0997                   CHD =       43911.1075     CHD-FROM-IBOUND                  

           TOTAL OUT =     8315504.9895             TOTAL OUT =      256500.0016

            IN - OUT =          -2.3826              IN - OUT =      -1.6072E-03

 PERCENT DISCREPANCY =          -0.00     PERCENT DISCREPANCY =          -0.00




         TIME SUMMARY AT END OF TIME STEP    7 IN STRESS PERIOD    3
                    SECONDS     MINUTES      HOURS       DAYS        YEARS
                    -----------------------------------------------------------
   TIME STEP LENGTH 4.37824E+05  7297.1      121.62      5.0674     1.38738E-02
 STRESS PERIOD TIME 1.89381E+06  31564.      526.06      21.919     6.00113E-02
         TOTAL TIME 4.65861E+06  77644.      1294.1      53.919     0.14762    


end timestep


start timestep kper="3" kstp="8" mode="normal"

 UBDSV1 SAVING     FLOW-JA-FACE ON UNIT   1015 AT TIME STEP      8, STRESS PERIOD      3
 UBDSV06 SAVING              WEL IN MODEL MUMODEL          PACKAGE MUMODEL         CONNECTED TO MODEL MUMODEL          PACKAGE WEL-1            ON UNIT   1015 AT TIME STEP      8, STRESS PERIOD      3
 UBDSV06 SAVING             RCHA IN MODEL MUMODEL          PACKAGE MUMODEL         CONNECTED TO MODEL MUMODEL          PACKAGE RCH-1            ON UNIT   1015 AT TIME STEP      8, STRESS PERIOD      3

 WEL PACKAGE (WEL-1) FLOW RATES   PERIOD      3   STEP        8
 -----------------------------------------------
   NUMBER   CELLID                    RATE      
 -----------------------------------------------
     1      (1,5,5)               0.0000000     
     2      (1,11,5)              0.0000000     
     3      (1,5,5)               0.0000000     
 -----------------------------------------------




 CHD PACKAGE (CHD-FROM-IBOUND) FLOW RATES   PERIOD      3   STEP        8
 -----------------------------------------------
   NUMBER   CELLID                    RATE      
 -----------------------------------------------
     1      (1,1,1)              -2453.0720     
     2      (1,1,2)              -2453.0765     
     3      (1,1,3)              -2453.0757     
     4      (1,1,4)              -2453.0734     
     5      (1,1,5)              -2453.0714     
     6      (1,1,6)              -2453.0696     
     7      (1,1,7)              -2453.0677     
     8      (1,1,8)              -2453.0651     
     9      (1,1,9)              -2453.0623     
     10     (1,21,1)             -2453.0613     
     11     (1,21,2)             -2453.0658     
     12     (1,21,3)             -2453.0693     
     13     (1,21,4)             -2453.0714     
     14     (1,21,5)             -2453.0736     
     15     (1,21,6)             -2453.0764     
     16     (1,21,7)             -2453.0793     
     17     (1,21,8)             -2453.0792     
     18     (1,21,9)             -2453.0712     
 -----------------------------------------------




 HEAD WILL BE SAVED ON UNIT 1016 AT END OF TIME STEP    8, STRESS PERIOD    3


  VOLUME BUDGET FOR ENTIRE MODEL AT END OF TIME STEP    8, STRESS PERIOD   3
  ---------------------------------------------------------------------------------------------------

     CUMULATIVE VOLUME      L**3       RATES FOR THIS TIME STEP      L**3/T          PACKAGE NAME    
     ------------------                 ------------------------                     ----------------

           IN:                                      IN:
           ---                                      ---
              STO-SS =           0.0000                STO-SS =           0.0000     STORAGE                          
              STO-SY =           0.0000                STO-SY =           0.0000     STORAGE                          
                 WEL =           0.0000                   WEL =           0.0000     WEL-1                            
                RCHA =     9875250.0000                  RCHA =      256500.0000     RCH-1                            
                 CHD =           0.0000                   CHD =           0.0000     CHD-FROM-IBOUND                  

            TOTAL IN =     9875250.0000              TOTAL IN =      256500.0000

          OUT:                                     OUT:
          ----                                     ----
              STO-SS =     7020742.2502                STO-SS =      204795.3990     STORAGE                          
              STO-SY =      259179.7947                STO-SY =        7549.3225     STORAGE                          
                 WEL =           0.0000                   WEL =           0.0000     WEL-1                            
                RCHA =           0.0000                  RCHA =           0.0000     RCH-1                            
                 CHD =     2595330.3542                   CHD =       44155.2812     CHD-FROM-IBOUND                  

           TOTAL OUT =     9875252.3991             TOTAL OUT =      256500.0027

            IN - OUT =          -2.3991              IN - OUT =      -2.7122E-03

 PERCENT DISCREPANCY =          -0.00     PERCENT DISCREPANCY =          -0.00




         TIME SUMMARY AT END OF TIME STEP    8 IN STRESS PERIOD    3
                    SECONDS     MINUTES      HOURS       DAYS        YEARS
                    -----------------------------------------------------------
   TIME STEP LENGTH 5.25389E+05  8756.5      145.94      6.0809     1.66486E-02
 STRESS PERIOD TIME 2.41920E+06  40320.      672.00      28.000     7.66598E-02
         TOTAL TIME 5.18400E+06  86400.      1440.0      60.000     0.16427    


end timestep


start timestep kper="4" kstp="1" mode="normal"


 OUTPUT CONTROL FOR STRESS PERIOD 4 IS REPEATED USING SETTINGS FROM A PREVIOUS STRESS PERIOD.


 STRESS PERIOD 4 IS TRANSIENT


 REUSING WELS FROM LAST STRESS PERIOD

 REUSING CHDS FROM LAST STRESS PERIOD
 UBDSV1 SAVING     FLOW-JA-FACE ON UNIT   1015 AT TIME STEP      1, STRESS PERIOD      4
 UBDSV06 SAVING              WEL IN MODEL MUMODEL          PACKAGE MUMODEL         CONNECTED TO MODEL MUMODEL          PACKAGE WEL-1            ON UNIT   1015 AT TIME STEP      1, STRESS PERIOD      4
 UBDSV06 SAVING             RCHA IN MODEL MUMODEL          PACKAGE MUMODEL         CONNECTED TO MODEL MUMODEL          PACKAGE RCH-1            ON UNIT   1015 AT TIME STEP      1, STRESS PERIOD      4

 WEL PACKAGE (WEL-1) FLOW RATES   PERIOD      4   STEP        1
 -----------------------------------------------
   NUMBER   CELLID                    RATE      
 -----------------------------------------------
     1      (1,5,5)               0.0000000     
     2      (1,11,5)              0.0000000     
     3      (1,5,5)               0.0000000     
 -----------------------------------------------




 CHD PACKAGE (CHD-FROM-IBOUND) FLOW RATES   PERIOD      4   STEP        1
 -----------------------------------------------
   NUMBER   CELLID                    RATE      
 -----------------------------------------------
     1      (1,1,1)              -2459.0264     
     2      (1,1,2)              -2459.0308     
     3      (1,1,3)              -2459.0300     
     4      (1,1,4)              -2459.0277     
     5      (1,1,5)              -2459.0257     
     6      (1,1,6)              -2459.0240     
     7      (1,1,7)              -2459.0220     
     8      (1,1,8)              -2459.0194     
     9      (1,1,9)              -2459.0167     
     10     (1,21,1)             -2459.0157     
     11     (1,21,2)             -2459.0202     
     12     (1,21,3)             -2459.0236     
     13     (1,21,4)             -2459.0258     
     14     (1,21,5)             -2459.0279     
     15     (1,21,6)             -2459.0307     
     16     (1,21,7)             -2459.0336     
     17     (1,21,8)             -2459.0335     
     18     (1,21,9)             -2459.0256     
 -----------------------------------------------




 HEAD WILL BE SAVED ON UNIT 1016 AT END OF TIME STEP    1, STRESS PERIOD    4


  VOLUME BUDGET FOR ENTIRE MODEL AT END OF TIME STEP    1, STRESS PERIOD   4
  ---------------------------------------------------------------------------------------------------

     CUMULATIVE VOLUME      L**3       RATES FOR THIS TIME STEP      L**3/T          PACKAGE NAME    
     ------------------                 ------------------------                     ----------------

           IN:                                      IN:
           ---                                      ---
              STO-SS =           0.0000                STO-SS =           0.0000     STORAGE                          
              STO-SY =           0.0000                STO-SY =           0.0000     STORAGE                          
                 WEL =           0.0000                   WEL =           0.0000     WEL-1                            
                RCHA =    10517831.0964                  RCHA =      342000.0000     RCH-1                            
                 CHD =           0.0000                   CHD =           0.0000     CHD-FROM-IBOUND                  

            TOTAL IN =    10517831.0964              TOTAL IN =      342000.0000

          OUT:                                     OUT:
          ----                                     ----
              STO-SS =     7560269.8971                STO-SS =      287152.0129     STORAGE                          
              STO-SY =      279068.8594                STO-SY =       10585.5279     STORAGE                          
                 WEL =           0.0000                   WEL =           0.0000     WEL-1                            
                RCHA =           0.0000                  RCHA =           0.0000     RCH-1                            
                 CHD =     2678494.7391                   CHD =       44262.4593     CHD-FROM-IBOUND                  

           TOTAL OUT =    10517833.4957             TOTAL OUT =      342000.0001

            IN - OUT =          -2.3993              IN - OUT =      -9.7989E-05

 PERCENT DISCREPANCY =          -0.00     PERCENT DISCREPANCY =          -0.00




         TIME SUMMARY AT END OF TIME STEP    1 IN STRESS PERIOD    4
                    SECONDS     MINUTES      HOURS       DAYS        YEARS
                    -----------------------------------------------------------
   TIME STEP LENGTH 1.62336E+05  2705.6      45.093      1.8789     5.14413E-03
 STRESS PERIOD TIME 1.62336E+05  2705.6      45.093      1.8789     5.14413E-03
         TOTAL TIME 5.34634E+06  89106.      1485.1      61.879     0.16942    


end timestep


start timestep kper="4" kstp="2" mode="normal"

 UBDSV1 SAVING     FLOW-JA-FACE ON UNIT   1015 AT TIME STEP      2, STRESS PERIOD      4
 UBDSV06 SAVING              WEL IN MODEL MUMODEL          PACKAGE MUMODEL         CONNECTED TO MODEL MUMODEL          PACKAGE WEL-1            ON UNIT   1015 AT TIME STEP      2, STRESS PERIOD      4
 UBDSV06 SAVING             RCHA IN MODEL MUMODEL          PACKAGE MUMODEL         CONNECTED TO MODEL MUMODEL          PACKAGE RCH-1            ON UNIT   1015 AT TIME STEP      2, STRESS PERIOD      4

 WEL PACKAGE (WEL-1) FLOW RATES   PERIOD      4   STEP        2
 -----------------------------------------------
   NUMBER   CELLID                    RATE      
 -----------------------------------------------
     1      (1,5,5)               0.0000000     
     2      (1,11,5)              0.0000000     
     3      (1,5,5)               0.0000000     
 -----------------------------------------------




 CHD PACKAGE (CHD-FROM-IBOUND) FLOW RATES   PERIOD      4   STEP        2
 -----------------------------------------------
   NUMBER   CELLID                    RATE      
 -----------------------------------------------
     1      (1,1,1)              -2466.1425     
     2      (1,1,2)              -2466.1469     
     3      (1,1,3)              -2466.1461     
     4      (1,1,4)              -2466.1438     
     5      (1,1,5)              -2466.1418     
     6      (1,1,6)              -2466.1401     
     7      (1,1,7)              -2466.1382     
     8      (1,1,8)              -2466.1355     
     9      (1,1,9)              -2466.1328     
     10     (1,21,1)             -2466.1318     
     11     (1,21,2)             -2466.1363     
     12     (1,21,3)             -2466.1397     
     13     (1,21,4)             -2466.1419     
     14     (1,21,5)             -2466.1440     
     15     (1,21,6)             -2466.1468     
     16     (1,21,7)             -2466.1497     
     17     (1,21,8)             -2466.1495     
     18     (1,21,9)             -2466.1417     
 -----------------------------------------------




 HEAD WILL BE SAVED ON UNIT 1016 AT END OF TIME STEP    2, STRESS PERIOD    4


  VOLUME BUDGET FOR ENTIRE MODEL AT END OF TIME STEP    2, STRESS PERIOD   4
  ---------------------------------------------------------------------------------------------------

     CUMULATIVE VOLUME      L**3       RATES FOR THIS TIME STEP      L**3/T          PACKAGE NAME    
     ------------------                 ------------------------                     ----------------

           IN:                                      IN:
           ---                                      ---
              STO-SS =           0.0000                STO-SS =           0.0000     STORAGE                          
              STO-SY =           0.0000                STO-SY =           0.0000     STORAGE                          
                 WEL =           0.0000                   WEL =           0.0000     WEL-1                            
                RCHA =    11288928.4120                  RCHA =      342000.0000     RCH-1                            
                 CHD =           0.0000                   CHD =           0.0000     CHD-FROM-IBOUND                  

            TOTAL IN =    11288928.4120              TOTAL IN =      342000.0000

          OUT:                                     OUT:
          ----                                     ----
              STO-SS =     8207431.0437                STO-SS =      287031.3612     STORAGE                          
              STO-SY =      302918.9666                STO-SY =       10578.0898     STORAGE                          
                 WEL =           0.0000                   WEL =           0.0000     WEL-1                            
                RCHA =           0.0000                  RCHA =           0.0000     RCH-1                            
                 CHD =     2778580.8014                   CHD =       44390.5492     CHD-FROM-IBOUND                  

           TOTAL OUT =    11288930.8117             TOTAL OUT =      342000.0002

            IN - OUT =          -2.3997              IN - OUT =      -1.7392E-04

 PERCENT DISCREPANCY =          -0.00     PERCENT DISCREPANCY =          -0.00




         TIME SUMMARY AT END OF TIME STEP    2 IN STRESS PERIOD    4
                    SECONDS     MINUTES      HOURS       DAYS        YEARS
                    -----------------------------------------------------------
   TIME STEP LENGTH 1.94804E+05  3246.7      54.112      2.2547     6.17295E-03
 STRESS PERIOD TIME 3.57140E+05  5952.3      99.206      4.1336     1.13171E-02
         TOTAL TIME 5.54114E+06  92352.      1539.2      64.134     0.17559    


end timestep


start timestep kper="4" kstp="3" mode="normal"

 UBDSV1 SAVING     FLOW-JA-FACE ON UNIT   1015 AT TIME STEP      3, STRESS PERIOD      4
 UBDSV06 SAVING              WEL IN MODEL MUMODEL          PACKAGE MUMODEL         CONNECTED TO MODEL MUMODEL          PACKAGE WEL-1            ON UNIT   1015 AT TIME STEP      3, STRESS PERIOD      4
 UBDSV06 SAVING             RCHA IN MODEL MUMODEL          PACKAGE MUMODEL         CONNECTED TO MODEL MUMODEL          PACKAGE RCH-1            ON UNIT   1015 AT TIME STEP      3, STRESS PERIOD      4

 WEL PACKAGE (WEL-1) FLOW RATES   PERIOD      4   STEP        3
 -----------------------------------------------
   NUMBER   CELLID                    RATE      
 -----------------------------------------------
     1      (1,5,5)               0.0000000     
     2      (1,11,5)              0.0000000     
     3      (1,5,5)               0.0000000     
 -----------------------------------------------




 CHD PACKAGE (CHD-FROM-IBOUND) FLOW RATES   PERIOD      4   STEP        3
 -----------------------------------------------
   NUMBER   CELLID                    RATE      
 -----------------------------------------------
     1      (1,1,1)              -2474.6405     
     2      (1,1,2)              -2474.6448     
     3      (1,1,3)              -2474.6441     
     4      (1,1,4)              -2474.6418     
     5      (1,1,5)              -2474.6398     
     6      (1,1,6)              -2474.6381     
     7      (1,1,7)              -2474.6362     
     8      (1,1,8)              -2474.6336     
     9      (1,1,9)              -2474.6308     
     10     (1,21,1)             -2474.6299     
     11     (1,21,2)             -2474.6343     
     12     (1,21,3)             -2474.6377     
     13     (1,21,4)             -2474.6399     
     14     (1,21,5)             -2474.6420     
     15     (1,21,6)             -2474.6448     
     16     (1,21,7)             -2474.6476     
     17     (1,21,8)             -2474.6474     
     18     (1,21,9)             -2474.6397     
 -----------------------------------------------




 HEAD WILL BE SAVED ON UNIT 1016 AT END OF TIME STEP    3, STRESS PERIOD    4


  VOLUME BUDGET FOR ENTIRE MODEL AT END OF TIME STEP    3, STRESS PERIOD   4
  ---------------------------------------------------------------------------------------------------

     CUMULATIVE VOLUME      L**3       RATES FOR THIS TIME STEP      L**3/T          PACKAGE NAME    
     ------------------                 ------------------------                     ----------------

           IN:                                      IN:
           ---                                      ---
              STO-SS =           0.0000                STO-SS =           0.0000     STORAGE                          
              STO-SY =           0.0000                STO-SY =           0.0000     STORAGE                          
                 WEL =           0.0000                   WEL =           0.0000     WEL-1                            
                RCHA =    12214245.1908                  RCHA =      342000.0000     RCH-1                            
                 CHD =           0.0000                   CHD =           0.0000     CHD-FROM-IBOUND                  

            TOTAL IN =    12214245.1908              TOTAL IN =      342000.0000

          OUT:                                     OUT:
          ----                                     ----
              STO-SS =     8983634.5988                STO-SS =      286887.2822     STORAGE                          
              STO-SY =      331515.0571                STO-SY =       10569.2052     STORAGE                          
                 WEL =           0.0000                   WEL =           0.0000     WEL-1                            
                RCHA =           0.0000                  RCHA =           0.0000     RCH-1                            
                 CHD =     2899097.9354                   CHD =       44543.5129     CHD-FROM-IBOUND                  

           TOTAL OUT =    12214247.5913             TOTAL OUT =      342000.0003

            IN - OUT =          -2.4005              IN - OUT =      -2.9629E-04

 PERCENT DISCREPANCY =          -0.00     PERCENT DISCREPANCY =          -0.00




         TIME SUMMARY AT END OF TIME STEP    3 IN STRESS PERIOD    4
                    SECONDS     MINUTES      HOURS       DAYS        YEARS
                    -----------------------------------------------------------
   TIME STEP LENGTH 2.33764E+05  3896.1      64.935      2.7056     7.40754E-03
 STRESS PERIOD TIME 5.90904E+05  9848.4      164.14      6.8392     1.87246E-02
         TOTAL TIME 5.77490E+06  96248.      1604.1      66.839     0.18300    


end timestep


start timestep kper="4" kstp="4" mode="normal"

 UBDSV1 SAVING     FLOW-JA-FACE ON UNIT   1015 AT TIME STEP      4, STRESS PERIOD      4
 UBDSV06 SAVING              WEL IN MODEL MUMODEL          PACKAGE MUMODEL         CONNECTED TO MODEL MUMODEL          PACKAGE WEL-1            ON UNIT   1015 AT TIME STEP      4, STRESS PERIOD      4
 UBDSV06 SAVING             RCHA IN MODEL MUMODEL          PACKAGE MUMODEL         CONNECTED TO MODEL MUMODEL          PACKAGE RCH-1            ON UNIT   1015 AT TIME STEP      4, STRESS PERIOD      4

 WEL PACKAGE (WEL-1) FLOW RATES   PERIOD      4   STEP        4
 -----------------------------------------------
   NUMBER   CELLID                    RATE      
 -----------------------------------------------
     1      (1,5,5)               0.0000000     
     2      (1,11,5)              0.0000000     
     3      (1,5,5)               0.0000000     
 -----------------------------------------------




 CHD PACKAGE (CHD-FROM-IBOUND) FLOW RATES   PERIOD      4   STEP        4
 -----------------------------------------------
   NUMBER   CELLID                    RATE      
 -----------------------------------------------
     1      (1,1,1)              -2484.7792     
     2      (1,1,2)              -2484.7835     
     3      (1,1,3)              -2484.7828     
     4      (1,1,4)              -2484.7806     
     5      (1,1,5)              -2484.7786     
     6      (1,1,6)              -2484.7769     
     7      (1,1,7)              -2484.7749     
     8      (1,1,8)              -2484.7723     
     9      (1,1,9)              -2484.7696     
     10     (1,21,1)             -2484.7687     
     11     (1,21,2)             -2484.7731     
     12     (1,21,3)             -2484.7765     
     13     (1,21,4)             -2484.7786     
     14     (1,21,5)             -2484.7808     
     15     (1,21,6)             -2484.7835     
     16     (1,21,7)             -2484.7863     
     17     (1,21,8)             -2484.7861     
     18     (1,21,9)             -2484.7784     
 -----------------------------------------------




 HEAD WILL BE SAVED ON UNIT 1016 AT END OF TIME STEP    4, STRESS PERIOD    4


  VOLUME BUDGET FOR ENTIRE MODEL AT END OF TIME STEP    4, STRESS PERIOD   4
  ---------------------------------------------------------------------------------------------------

     CUMULATIVE VOLUME      L**3       RATES FOR THIS TIME STEP      L**3/T          PACKAGE NAME    
     ------------------                 ------------------------                     ----------------

           IN:                                      IN:
           ---                                      ---
              STO-SS =           0.0000                STO-SS =           0.0000     STORAGE                          
              STO-SY =           0.0000                STO-SY =           0.0000     STORAGE                          
                 WEL =           0.0000                   WEL =           0.0000     WEL-1                            
                RCHA =    13324625.3254                  RCHA =      342000.0000     RCH-1                            
                 CHD =           0.0000                   CHD =           0.0000     CHD-FROM-IBOUND                  

            TOTAL IN =    13324625.3254              TOTAL IN =      342000.0000

          OUT:                                     OUT:
          ----                                     ----
              STO-SS =     9914520.7715                STO-SS =      286715.3880     STORAGE                          
              STO-SY =      365795.9404                STO-SY =       10558.6022     STORAGE                          
                 WEL =           0.0000                   WEL =           0.0000     WEL-1                            
                RCHA =           0.0000                  RCHA =           0.0000     RCH-1                            
                 CHD =     3044311.0156                   CHD =       44726.0104     CHD-FROM-IBOUND                  

           TOTAL OUT =    13324627.7275             TOTAL OUT =      342000.0005

            IN - OUT =          -2.4021              IN - OUT =      -5.0493E-04

 PERCENT DISCREPANCY =          -0.00     PERCENT DISCREPANCY =          -0.00




         TIME SUMMARY AT END OF TIME STEP    4 IN STRESS PERIOD    4
                    SECONDS     MINUTES      HOURS       DAYS        YEARS
                    -----------------------------------------------------------
   TIME STEP LENGTH 2.80517E+05  4675.3      77.921      3.2467     8.88905E-03
 STRESS PERIOD TIME 8.71421E+05  14524.      242.06      10.086     2.76137E-02
         TOTAL TIME 6.05542E+06 1.00924E+05  1682.1      70.086     0.19188    


end timestep


start timestep kper="4" kstp="5" mode="normal"

 UBDSV1 SAVING     FLOW-JA-FACE ON UNIT   1015 AT TIME STEP      5, STRESS PERIOD      4
 UBDSV06 SAVING              WEL IN MODEL MUMODEL          PACKAGE MUMODEL         CONNECTED TO MODEL MUMODEL          PACKAGE WEL-1            ON UNIT   1015 AT TIME STEP      5, STRESS PERIOD      4
 UBDSV06 SAVING             RCHA IN MODEL MUMODEL          PACKAGE MUMODEL         CONNECTED TO MODEL MUMODEL          PACKAGE RCH-1            ON UNIT   1015 AT TIME STEP      5, STRESS PERIOD      4

 WEL PACKAGE (WEL-1) FLOW RATES   PERIOD      4   STEP        5
 -----------------------------------------------
   NUMBER   CELLID                    RATE      
 -----------------------------------------------
     1      (1,5,5)               0.0000000     
     2      (1,11,5)              0.0000000     
     3      (1,5,5)               0.0000000     
 -----------------------------------------------




 CHD PACKAGE (CHD-FROM-IBOUND) FLOW RATES   PERIOD      4   STEP        5
 -----------------------------------------------
   NUMBER   CELLID                    RATE      
 -----------------------------------------------
     1      (1,1,1)              -2496.8622     
     2      (1,1,2)              -2496.8665     
     3      (1,1,3)              -2496.8657     
     4      (1,1,4)              -2496.8635     
     5      (1,1,5)              -2496.8616     
     6      (1,1,6)              -2496.8599     
     7      (1,1,7)              -2496.8579     
     8      (1,1,8)              -2496.8553     
     9      (1,1,9)              -2496.8527     
     10     (1,21,1)             -2496.8518     
     11     (1,21,2)             -2496.8561     
     12     (1,21,3)             -2496.8595     
     13     (1,21,4)             -2496.8616     
     14     (1,21,5)             -2496.8637     
     15     (1,21,6)             -2496.8665     
     16     (1,21,7)             -2496.8692     
     17     (1,21,8)             -2496.8689     
     18     (1,21,9)             -2496.8614     
 -----------------------------------------------




 HEAD WILL BE SAVED ON UNIT 1016 AT END OF TIME STEP    5, STRESS PERIOD    4


  VOLUME BUDGET FOR ENTIRE MODEL AT END OF TIME STEP    5, STRESS PERIOD   4
  ---------------------------------------------------------------------------------------------------

     CUMULATIVE VOLUME      L**3       RATES FOR THIS TIME STEP      L**3/T          PACKAGE NAME    
     ------------------                 ------------------------                     ----------------

           IN:                                      IN:
           ---                                      ---
              STO-SS =           0.0000                STO-SS =           0.0000     STORAGE                          
              STO-SY =           0.0000                STO-SY =           0.0000     STORAGE                          
                 WEL =           0.0000                   WEL =           0.0000     WEL-1                            
                RCHA =    14657081.4868                  RCHA =      342000.0000     RCH-1                            
                 CHD =           0.0000                   CHD =           0.0000     CHD-FROM-IBOUND                  

            TOTAL IN =    14657081.4868              TOTAL IN =      342000.0000

          OUT:                                     OUT:
          ----                                     ----
              STO-SS =    11030786.0578                STO-SS =      286510.5352     STORAGE                          
              STO-SY =      406883.7516                STO-SY =       10545.9615     STORAGE                          
                 WEL =           0.0000                   WEL =           0.0000     WEL-1                            
                RCHA =           0.0000                  RCHA =           0.0000     RCH-1                            
                 CHD =     3219414.0829                   CHD =       44943.5041     CHD-FROM-IBOUND                  

           TOTAL OUT =    14657083.8923             TOTAL OUT =      342000.0009

            IN - OUT =          -2.4055              IN - OUT =      -8.5896E-04

 PERCENT DISCREPANCY =          -0.00     PERCENT DISCREPANCY =          -0.00




         TIME SUMMARY AT END OF TIME STEP    5 IN STRESS PERIOD    4
                    SECONDS     MINUTES      HOURS       DAYS        YEARS
                    -----------------------------------------------------------
   TIME STEP LENGTH 3.36621E+05  5610.3      93.506      3.8961     1.06669E-02
 STRESS PERIOD TIME 1.20804E+06  20134.      335.57      13.982     3.82805E-02
         TOTAL TIME 6.39204E+06 1.06534E+05  1775.6      73.982     0.20255    


end timestep


start timestep kper="4" kstp="6" mode="normal"

 UBDSV1 SAVING     FLOW-JA-FACE ON UNIT   1015 AT TIME STEP      6, STRESS PERIOD      4
 UBDSV06 SAVING              WEL IN MODEL MUMODEL          PACKAGE MUMODEL         CONNECTED TO MODEL MUMODEL          PACKAGE WEL-1            ON UNIT   1015 AT TIME STEP      6, STRESS PERIOD      4
 UBDSV06 SAVING             RCHA IN MODEL MUMODEL          PACKAGE MUMODEL         CONNECTED TO MODEL MUMODEL          PACKAGE RCH-1            ON UNIT   1015 AT TIME STEP      6, STRESS PERIOD      4

 WEL PACKAGE (WEL-1) FLOW RATES   PERIOD      4   STEP        6
 -----------------------------------------------
   NUMBER   CELLID                    RATE      
 -----------------------------------------------
     1      (1,5,5)               0.0000000     
     2      (1,11,5)              0.0000000     
     3      (1,5,5)               0.0000000     
 -----------------------------------------------




 CHD PACKAGE (CHD-FROM-IBOUND) FLOW RATES   PERIOD      4   STEP        6
 -----------------------------------------------
   NUMBER   CELLID                    RATE      
 -----------------------------------------------
     1      (1,1,1)              -2511.2436     
     2      (1,1,2)              -2511.2477     
     3      (1,1,3)              -2511.2471     
     4      (1,1,4)              -2511.2449     
     5      (1,1,5)              -2511.2429     
     6      (1,1,6)              -2511.2412     
     7      (1,1,7)              -2511.2393     
     8      (1,1,8)              -2511.2367     
     9      (1,1,9)              -2511.2341     
     10     (1,21,1)             -2511.2332     
     11     (1,21,2)             -2511.2376     
     12     (1,21,3)             -2511.2409     
     13     (1,21,4)             -2511.2430     
     14     (1,21,5)             -2511.2451     
     15     (1,21,6)             -2511.2478     
     16     (1,21,7)             -2511.2505     
     17     (1,21,8)             -2511.2502     
     18     (1,21,9)             -2511.2428     
 -----------------------------------------------




 HEAD WILL BE SAVED ON UNIT 1016 AT END OF TIME STEP    6, STRESS PERIOD    4


  VOLUME BUDGET FOR ENTIRE MODEL AT END OF TIME STEP    6, STRESS PERIOD   4
  ---------------------------------------------------------------------------------------------------

     CUMULATIVE VOLUME      L**3       RATES FOR THIS TIME STEP      L**3/T          PACKAGE NAME    
     ------------------                 ------------------------                     ----------------

           IN:                                      IN:
           ---                                      ---
              STO-SS =           0.0000                STO-SS =           0.0000     STORAGE                          
              STO-SY =           0.0000                STO-SY =           0.0000     STORAGE                          
                 WEL =           0.0000                   WEL =           0.0000     WEL-1                            
                RCHA =    16256028.8805                  RCHA =      342000.0000     RCH-1                            
                 CHD =           0.0000                   CHD =           0.0000     CHD-FROM-IBOUND                  

            TOTAL IN =    16256028.8805              TOTAL IN =      342000.0000

          OUT:                                     OUT:
          ----                                     ----
              STO-SS =    12369164.5085                STO-SS =      286266.7227     STORAGE                          
              STO-SY =      456118.7564                STO-SY =       10530.9103     STORAGE                          
                 WEL =           0.0000                   WEL =           0.0000     WEL-1                            
                RCHA =           0.0000                  RCHA =           0.0000     RCH-1                            
                 CHD =     3430748.0280                   CHD =       45202.3685     CHD-FROM-IBOUND                  

           TOTAL OUT =    16256031.2929             TOTAL OUT =      342000.0015

            IN - OUT =          -2.4123              IN - OUT =      -1.4624E-03

 PERCENT DISCREPANCY =          -0.00     PERCENT DISCREPANCY =          -0.00




         TIME SUMMARY AT END OF TIME STEP    6 IN STRESS PERIOD    4
                    SECONDS     MINUTES      HOURS       DAYS        YEARS
                    -----------------------------------------------------------
   TIME STEP LENGTH 4.03945E+05  6732.4      112.21      4.6753     1.28002E-02
 STRESS PERIOD TIME 1.61199E+06  26866.      447.77      18.657     5.10808E-02
         TOTAL TIME 6.79599E+06 1.13266E+05  1887.8      78.657     0.21535    


end timestep


start timestep kper="4" kstp="7" mode="normal"

 UBDSV1 SAVING     FLOW-JA-FACE ON UNIT   1015 AT TIME STEP      7, STRESS PERIOD      4
 UBDSV06 SAVING              WEL IN MODEL MUMODEL          PACKAGE MUMODEL         CONNECTED TO MODEL MUMODEL          PACKAGE WEL-1            ON UNIT   1015 AT TIME STEP      7, STRESS PERIOD      4
 UBDSV06 SAVING             RCHA IN MODEL MUMODEL          PACKAGE MUMODEL         CONNECTED TO MODEL MUMODEL          PACKAGE RCH-1            ON UNIT   1015 AT TIME STEP      7, STRESS PERIOD      4

 WEL PACKAGE (WEL-1) FLOW RATES   PERIOD      4   STEP        7
 -----------------------------------------------
   NUMBER   CELLID                    RATE      
 -----------------------------------------------
     1      (1,5,5)               0.0000000     
     2      (1,11,5)              0.0000000     
     3      (1,5,5)               0.0000000     
 -----------------------------------------------




 CHD PACKAGE (CHD-FROM-IBOUND) FLOW RATES   PERIOD      4   STEP        7
 -----------------------------------------------
   NUMBER   CELLID                    RATE      
 -----------------------------------------------
     1      (1,1,1)              -2528.3343     
     2      (1,1,2)              -2528.3384     
     3      (1,1,3)              -2528.3378     
     4      (1,1,4)              -2528.3357     
     5      (1,1,5)              -2528.3337     
     6      (1,1,6)              -2528.3320     
     7      (1,1,7)              -2528.3301     
     8      (1,1,8)              -2528.3276     
     9      (1,1,9)              -2528.3249     
     10     (1,21,1)             -2528.3241     
     11     (1,21,2)             -2528.3284     
     12     (1,21,3)             -2528.3317     
     13     (1,21,4)             -2528.3338     
     14     (1,21,5)             -2528.3359     
     15     (1,21,6)             -2528.3386     
     16     (1,21,7)             -2528.3412     
     17     (1,21,8)             -2528.3408     
     18     (1,21,9)             -2528.3335     
 -----------------------------------------------




 HEAD WILL BE SAVED ON UNIT 1016 AT END OF TIME STEP    7, STRESS PERIOD    4


  VOLUME BUDGET FOR ENTIRE MODEL AT END OF TIME STEP    7, STRESS PERIOD   4
  ---------------------------------------------------------------------------------------------------

     CUMULATIVE VOLUME      L**3       RATES FOR THIS TIME STEP      L**3/T          PACKAGE NAME    
     ------------------                 ------------------------                     ----------------

           IN:                                      IN:
           ---                                      ---
              STO-SS =           0.0000                STO-SS =           0.0000     STORAGE                          
              STO-SY =           0.0000                STO-SY =           0.0000     STORAGE                          
                 WEL =           0.0000                   WEL =           0.0000     WEL-1                            
                RCHA =    18174765.7530                  RCHA =      342000.0000     RCH-1                            
                 CHD =           0.0000                   CHD =           0.0000     CHD-FROM-IBOUND                  

            TOTAL IN =    18174765.7530              TOTAL IN =      342000.0000

          OUT:                                     OUT:
          ----                                     ----
              STO-SS =    13973593.1241                STO-SS =      285976.9854     STORAGE                          
              STO-SY =      515100.3614                STO-SY =       10513.0147     STORAGE                          
                 WEL =           0.0000                   WEL =           0.0000     WEL-1                            
                RCHA =           0.0000                  RCHA =           0.0000     RCH-1                            
                 CHD =     3686074.6937                   CHD =       45510.0024     CHD-FROM-IBOUND                  

           TOTAL OUT =    18174768.1793             TOTAL OUT =      342000.0025

            IN - OUT =          -2.4262              IN - OUT =      -2.4823E-03

 PERCENT DISCREPANCY =          -0.00     PERCENT DISCREPANCY =          -0.00




         TIME SUMMARY AT END OF TIME STEP    7 IN STRESS PERIOD    4
                    SECONDS     MINUTES      HOURS       DAYS        YEARS
                    -----------------------------------------------------------
   TIME STEP LENGTH 4.84734E+05  8078.9      134.65      5.6103     1.53603E-02
 STRESS PERIOD TIME 2.09672E+06  34945.      582.42      24.268     6.64410E-02
         TOTAL TIME 7.28072E+06 1.21345E+05  2022.4      84.268     0.23071    


end timestep


start timestep kper="4" kstp="8" mode="normal"

 UBDSV1 SAVING     FLOW-JA-FACE ON UNIT   1015 AT TIME STEP      8, STRESS PERIOD      4
 UBDSV06 SAVING              WEL IN MODEL MUMODEL          PACKAGE MUMODEL         CONNECTED TO MODEL MUMODEL          PACKAGE WEL-1            ON UNIT   1015 AT TIME STEP      8, STRESS PERIOD      4
 UBDSV06 SAVING             RCHA IN MODEL MUMODEL          PACKAGE MUMODEL         CONNECTED TO MODEL MUMODEL          PACKAGE RCH-1            ON UNIT   1015 AT TIME STEP      8, STRESS PERIOD      4

 WEL PACKAGE (WEL-1) FLOW RATES   PERIOD      4   STEP        8
 -----------------------------------------------
   NUMBER   CELLID                    RATE      
 -----------------------------------------------
     1      (1,5,5)               0.0000000     
     2      (1,11,5)              0.0000000     
     3      (1,5,5)               0.0000000     
 -----------------------------------------------




 CHD PACKAGE (CHD-FROM-IBOUND) FLOW RATES   PERIOD      4   STEP        8
 -----------------------------------------------
   NUMBER   CELLID                    RATE      
 -----------------------------------------------
     1      (1,1,1)              -2548.6087     
     2      (1,1,2)              -2548.6127     
     3      (1,1,3)              -2548.6121     
     4      (1,1,4)              -2548.6100     
     5      (1,1,5)              -2548.6081     
     6      (1,1,6)              -2548.6064     
     7      (1,1,7)              -2548.6045     
     8      (1,1,8)              -2548.6020     
     9      (1,1,9)              -2548.5994     
     10     (1,21,1)             -2548.5987     
     11     (1,21,2)             -2548.6029     
     12     (1,21,3)             -2548.6061     
     13     (1,21,4)             -2548.6082     
     14     (1,21,5)             -2548.6102     
     15     (1,21,6)             -2548.6129     
     16     (1,21,7)             -2548.6154     
     17     (1,21,8)             -2548.6150     
     18     (1,21,9)             -2548.6079     
 -----------------------------------------------




 HEAD WILL BE SAVED ON UNIT 1016 AT END OF TIME STEP    8, STRESS PERIOD    4


  VOLUME BUDGET FOR ENTIRE MODEL AT END OF TIME STEP    8, STRESS PERIOD   4
  ---------------------------------------------------------------------------------------------------

     CUMULATIVE VOLUME      L**3       RATES FOR THIS TIME STEP      L**3/T          PACKAGE NAME    
     ------------------                 ------------------------                     ----------------

           IN:                                      IN:
           ---                                      ---
              STO-SS =           0.0000                STO-SS =           0.0000     STORAGE                          
              STO-SY =           0.0000                STO-SY =           0.0000     STORAGE                          
                 WEL =           0.0000                   WEL =           0.0000     WEL-1                            
                RCHA =    20477250.0000                  RCHA =      342000.0000     RCH-1                            
                 CHD =           0.0000                   CHD =           0.0000     CHD-FROM-IBOUND                  

            TOTAL IN =    20477250.0000              TOTAL IN =      342000.0000

          OUT:                                     OUT:
          ----                                     ----
              STO-SS =    15896593.5629                STO-SS =      285633.2897     STORAGE                          
              STO-SY =      585735.2801                STO-SY =       10491.7731     STORAGE                          
                 WEL =           0.0000                   WEL =           0.0000     WEL-1                            
                RCHA =           0.0000                  RCHA =           0.0000     RCH-1                            
                 CHD =     3994923.6116                   CHD =       45874.9414     CHD-FROM-IBOUND                  

           TOTAL OUT =    20477252.4545             TOTAL OUT =      342000.0042

            IN - OUT =          -2.4545              IN - OUT =      -4.1998E-03

 PERCENT DISCREPANCY =          -0.00     PERCENT DISCREPANCY =          -0.00




         TIME SUMMARY AT END OF TIME STEP    8 IN STRESS PERIOD    4
                    SECONDS     MINUTES      HOURS       DAYS        YEARS
                    -----------------------------------------------------------
   TIME STEP LENGTH 5.81680E+05  9694.7      161.58      6.7324     1.84323E-02
 STRESS PERIOD TIME 2.67840E+06  44640.      744.00      31.000     8.48734E-02
         TOTAL TIME 7.86240E+06 1.31040E+05  2184.0      91.000     0.24914    


end timestep


start timestep kper="5" kstp="1" mode="normal"


 OUTPUT CONTROL FOR STRESS PERIOD 5 IS REPEATED USING SETTINGS FROM A PREVIOUS STRESS PERIOD.


 STRESS PERIOD 5 IS TRANSIENT


 REUSING WELS FROM LAST STRESS PERIOD

 REUSING CHDS FROM LAST STRESS PERIOD
 UBDSV1 SAVING     FLOW-JA-FACE ON UNIT   1015 AT TIME STEP      1, STRESS PERIOD      5
 UBDSV06 SAVING              WEL IN MODEL MUMODEL          PACKAGE MUMODEL         CONNECTED TO MODEL MUMODEL          PACKAGE WEL-1            ON UNIT   1015 AT TIME STEP      1, STRESS PERIOD      5
 UBDSV06 SAVING             RCHA IN MODEL MUMODEL          PACKAGE MUMODEL         CONNECTED TO MODEL MUMODEL          PACKAGE RCH-1            ON UNIT   1015 AT TIME STEP      1, STRESS PERIOD      5

 WEL PACKAGE (WEL-1) FLOW RATES   PERIOD      5   STEP        1
 -----------------------------------------------
   NUMBER   CELLID                    RATE      
 -----------------------------------------------
     1      (1,5,5)               0.0000000     
     2      (1,11,5)              0.0000000     
     3      (1,5,5)               0.0000000     
 -----------------------------------------------




 CHD PACKAGE (CHD-FROM-IBOUND) FLOW RATES   PERIOD      5   STEP        1
 -----------------------------------------------
   NUMBER   CELLID                    RATE      
 -----------------------------------------------
     1      (1,1,1)              -2552.3483     
     2      (1,1,2)              -2552.3522     
     3      (1,1,3)              -2552.3516     
     4      (1,1,4)              -2552.3496     
     5      (1,1,5)              -2552.3476     
     6      (1,1,6)              -2552.3460     
     7      (1,1,7)              -2552.3441     
     8      (1,1,8)              -2552.3415     
     9      (1,1,9)              -2552.3389     
     10     (1,21,1)             -2552.3382     
     11     (1,21,2)             -2552.3424     
     12     (1,21,3)             -2552.3457     
     13     (1,21,4)             -2552.3477     
     14     (1,21,5)             -2552.3498     
     15     (1,21,6)             -2552.3524     
     16     (1,21,7)             -2552.3549     
     17     (1,21,8)             -2552.3544     
     18     (1,21,9)             -2552.3475     
 -----------------------------------------------




 HEAD WILL BE SAVED ON UNIT 1016 AT END OF TIME STEP    1, STRESS PERIOD    5


  VOLUME BUDGET FOR ENTIRE MODEL AT END OF TIME STEP    1, STRESS PERIOD   5
  ---------------------------------------------------------------------------------------------------

     CUMULATIVE VOLUME      L**3       RATES FOR THIS TIME STEP      L**3/T          PACKAGE NAME    
     ------------------                 ------------------------                     ----------------

           IN:                                      IN:
           ---                                      ---
              STO-SS =           0.0000                STO-SS =           0.0000     STORAGE                          
              STO-SY =           0.0000                STO-SY =           0.0000     STORAGE                          
                 WEL =           0.0000                   WEL =           0.0000     WEL-1                            
                RCHA =    20943639.5054                  RCHA =      256500.0000     RCH-1                            
                 CHD =           0.0000                   CHD =           0.0000     CHD-FROM-IBOUND                  

            TOTAL IN =    20943639.5054              TOTAL IN =      256500.0000

          OUT:                                     OUT:
          ----                                     ----
              STO-SS =    16265899.6465                STO-SS =      203107.0797     STORAGE                          
              STO-SY =      599282.6999                STO-SY =        7450.6676     STORAGE                          
                 WEL =           0.0000                   WEL =           0.0000     WEL-1                            
                RCHA =           0.0000                  RCHA =           0.0000     RCH-1                            
                 CHD =     4078459.6137                   CHD =       45942.2528     CHD-FROM-IBOUND                  

           TOTAL OUT =    20943641.9601             TOTAL OUT =      256500.0001

            IN - OUT =          -2.4546              IN - OUT =      -6.8944E-05

 PERCENT DISCREPANCY =          -0.00     PERCENT DISCREPANCY =          -0.00




         TIME SUMMARY AT END OF TIME STEP    1 IN STRESS PERIOD    5
                    SECONDS     MINUTES      HOURS       DAYS        YEARS
                    -----------------------------------------------------------
   TIME STEP LENGTH 1.57100E+05  2618.3      43.639      1.8183     4.97819E-03
 STRESS PERIOD TIME 1.57100E+05  2618.3      43.639      1.8183     4.97819E-03
         TOTAL TIME 8.01950E+06 1.33658E+05  2227.6      92.818     0.25412    


end timestep


start timestep kper="5" kstp="2" mode="normal"

 UBDSV1 SAVING     FLOW-JA-FACE ON UNIT   1015 AT TIME STEP      2, STRESS PERIOD      5
 UBDSV06 SAVING              WEL IN MODEL MUMODEL          PACKAGE MUMODEL         CONNECTED TO MODEL MUMODEL          PACKAGE WEL-1            ON UNIT   1015 AT TIME STEP      2, STRESS PERIOD      5
 UBDSV06 SAVING             RCHA IN MODEL MUMODEL          PACKAGE MUMODEL         CONNECTED TO MODEL MUMODEL          PACKAGE RCH-1            ON UNIT   1015 AT TIME STEP      2, STRESS PERIOD      5

 WEL PACKAGE (WEL-1) FLOW RATES   PERIOD      5   STEP        2
 -----------------------------------------------
   NUMBER   CELLID                    RATE      
 -----------------------------------------------
     1      (1,5,5)               0.0000000     
     2      (1,11,5)              0.0000000     
     3      (1,5,5)               0.0000000     
 -----------------------------------------------




 CHD PACKAGE (CHD-FROM-IBOUND) FLOW RATES   PERIOD      5   STEP        2
 -----------------------------------------------
   NUMBER   CELLID                    RATE      
 -----------------------------------------------
     1      (1,1,1)              -2556.8199     
     2      (1,1,2)              -2556.8237     
     3      (1,1,3)              -2556.8232     
     4      (1,1,4)              -2556.8211     
     5      (1,1,5)              -2556.8192     
     6      (1,1,6)              -2556.8176     
     7      (1,1,7)              -2556.8157     
     8      (1,1,8)              -2556.8131     
     9      (1,1,9)              -2556.8105     
     10     (1,21,1)             -2556.8099     
     11     (1,21,2)             -2556.8140     
     12     (1,21,3)             -2556.8173     
     13     (1,21,4)             -2556.8193     
     14     (1,21,5)             -2556.8214     
     15     (1,21,6)             -2556.8240     
     16     (1,21,7)             -2556.8265     
     17     (1,21,8)             -2556.8260     
     18     (1,21,9)             -2556.8191     
 -----------------------------------------------




 HEAD WILL BE SAVED ON UNIT 1016 AT END OF TIME STEP    2, STRESS PERIOD    5


  VOLUME BUDGET FOR ENTIRE MODEL AT END OF TIME STEP    2, STRESS PERIOD   5
  ---------------------------------------------------------------------------------------------------

     CUMULATIVE VOLUME      L**3       RATES FOR THIS TIME STEP      L**3/T          PACKAGE NAME    
     ------------------                 ------------------------                     ----------------

           IN:                                      IN:
           ---                                      ---
              STO-SS =           0.0000                STO-SS =           0.0000     STORAGE                          
              STO-SY =           0.0000                STO-SY =           0.0000     STORAGE                          
                 WEL =           0.0000                   WEL =           0.0000     WEL-1                            
                RCHA =    21503306.9120                  RCHA =      256500.0000     RCH-1                            
                 CHD =           0.0000                   CHD =           0.0000     CHD-FROM-IBOUND                  

            TOTAL IN =    21503306.9120              TOTAL IN =      256500.0000

          OUT:                                     OUT:
          ----                                     ----
              STO-SS =    16708900.7790                STO-SS =      203030.9236     STORAGE                          
              STO-SY =      615530.1501                STO-SY =        7446.3350     STORAGE                          
                 WEL =           0.0000                   WEL =           0.0000     WEL-1                            
                RCHA =           0.0000                  RCHA =           0.0000     RCH-1                            
                 CHD =     4178878.4378                   CHD =       46022.7415     CHD-FROM-IBOUND                  

           TOTAL OUT =    21503309.3669             TOTAL OUT =      256500.0001

            IN - OUT =          -2.4549              IN - OUT =      -1.2188E-04

 PERCENT DISCREPANCY =          -0.00     PERCENT DISCREPANCY =          -0.00




         TIME SUMMARY AT END OF TIME STEP    2 IN STRESS PERIOD    5
                    SECONDS     MINUTES      HOURS       DAYS        YEARS
                    -----------------------------------------------------------
   TIME STEP LENGTH 1.88520E+05  3142.0      52.367      2.1819     5.97382E-03
 STRESS PERIOD TIME 3.45619E+05  5760.3      96.005      4.0002     1.09520E-02
         TOTAL TIME 8.20802E+06 1.36800E+05  2280.0      95.000     0.26010    


end timestep


start timestep kper="5" kstp="3" mode="normal"

 UBDSV1 SAVING     FLOW-JA-FACE ON UNIT   1015 AT TIME STEP      3, STRESS PERIOD      5
 UBDSV06 SAVING              WEL IN MODEL MUMODEL          PACKAGE MUMODEL         CONNECTED TO MODEL MUMODEL          PACKAGE WEL-1            ON UNIT   1015 AT TIME STEP      3, STRESS PERIOD      5
 UBDSV06 SAVING             RCHA IN MODEL MUMODEL          PACKAGE MUMODEL         CONNECTED TO MODEL MUMODEL          PACKAGE RCH-1            ON UNIT   1015 AT TIME STEP      3, STRESS PERIOD      5

 WEL PACKAGE (WEL-1) FLOW RATES   PERIOD      5   STEP        3
 -----------------------------------------------
   NUMBER   CELLID                    RATE      
 -----------------------------------------------
     1      (1,5,5)               0.0000000     
     2      (1,11,5)              0.0000000     
     3      (1,5,5)               0.0000000     
 -----------------------------------------------




 CHD PACKAGE (CHD-FROM-IBOUND) FLOW RATES   PERIOD      5   STEP        3
 -----------------------------------------------
   NUMBER   CELLID                    RATE      
 -----------------------------------------------
     1      (1,1,1)              -2562.1633     
     2      (1,1,2)              -2562.1671     
     3      (1,1,3)              -2562.1666     
     4      (1,1,4)              -2562.1645     
     5      (1,1,5)              -2562.1626     
     6      (1,1,6)              -2562.1610     
     7      (1,1,7)              -2562.1591     
     8      (1,1,8)              -2562.1566     
     9      (1,1,9)              -2562.1540     
     10     (1,21,1)             -2562.1533     
     11     (1,21,2)             -2562.1575     
     12     (1,21,3)             -2562.1607     
     13     (1,21,4)             -2562.1627     
     14     (1,21,5)             -2562.1648     
     15     (1,21,6)             -2562.1674     
     16     (1,21,7)             -2562.1698     
     17     (1,21,8)             -2562.1693     
     18     (1,21,9)             -2562.1625     
 -----------------------------------------------




 HEAD WILL BE SAVED ON UNIT 1016 AT END OF TIME STEP    3, STRESS PERIOD    5


  VOLUME BUDGET FOR ENTIRE MODEL AT END OF TIME STEP    3, STRESS PERIOD   5
  ---------------------------------------------------------------------------------------------------

     CUMULATIVE VOLUME      L**3       RATES FOR THIS TIME STEP      L**3/T          PACKAGE NAME    
     ------------------                 ------------------------                     ----------------

           IN:                                      IN:
           ---                                      ---
              STO-SS =           0.0000                STO-SS =           0.0000     STORAGE                          
              STO-SY =           0.0000                STO-SY =           0.0000     STORAGE                          
                 WEL =           0.0000                   WEL =           0.0000     WEL-1                            
                RCHA =    22174907.7998                  RCHA =      256500.0000     RCH-1                            
                 CHD =           0.0000                   CHD =           0.0000     CHD-FROM-IBOUND                  

            TOTAL IN =    22174907.7998              TOTAL IN =      256500.0000

          OUT:                                     OUT:
          ----                                     ----
              STO-SS =    17240263.8622                STO-SS =      202939.9206     STORAGE                          
              STO-SY =      635013.5326                STO-SY =        7441.1569     STORAGE                          
                 WEL =           0.0000                   WEL =           0.0000     WEL-1                            
                RCHA =           0.0000                  RCHA =           0.0000     RCH-1                            
                 CHD =     4299632.8604                   CHD =       46118.9227     CHD-FROM-IBOUND                  

           TOTAL OUT =    22174910.2553             TOTAL OUT =      256500.0002

            IN - OUT =          -2.4555              IN - OUT =      -2.1262E-04

 PERCENT DISCREPANCY =          -0.00     PERCENT DISCREPANCY =          -0.00




         TIME SUMMARY AT END OF TIME STEP    3 IN STRESS PERIOD    5
                    SECONDS     MINUTES      HOURS       DAYS        YEARS
                    -----------------------------------------------------------
   TIME STEP LENGTH 2.26223E+05  3770.4      62.840      2.6183     7.16859E-03
 STRESS PERIOD TIME 5.71843E+05  9530.7      158.85      6.6185     1.81206E-02
         TOTAL TIME 8.43424E+06 1.40571E+05  2342.8      97.619     0.26727    


end timestep


start timestep kper="5" kstp="4" mode="normal"

 UBDSV1 SAVING     FLOW-JA-FACE ON UNIT   1015 AT TIME STEP      4, STRESS PERIOD      5
 UBDSV06 SAVING              WEL IN MODEL MUMODEL          PACKAGE MUMODEL         CONNECTED TO MODEL MUMODEL          PACKAGE WEL-1            ON UNIT   1015 AT TIME STEP      4, STRESS PERIOD      5
 UBDSV06 SAVING             RCHA IN MODEL MUMODEL          PACKAGE MUMODEL         CONNECTED TO MODEL MUMODEL          PACKAGE RCH-1            ON UNIT   1015 AT TIME STEP      4, STRESS PERIOD      5

 WEL PACKAGE (WEL-1) FLOW RATES   PERIOD      5   STEP        4
 -----------------------------------------------
   NUMBER   CELLID                    RATE      
 -----------------------------------------------
     1      (1,5,5)               0.0000000     
     2      (1,11,5)              0.0000000     
     3      (1,5,5)               0.0000000     
 -----------------------------------------------




 CHD PACKAGE (CHD-FROM-IBOUND) FLOW RATES   PERIOD      5   STEP        4
 -----------------------------------------------
   NUMBER   CELLID                    RATE      
 -----------------------------------------------
     1      (1,1,1)              -2568.5433     
     2      (1,1,2)              -2568.5471     
     3      (1,1,3)              -2568.5466     
     4      (1,1,4)              -2568.5445     
     5      (1,1,5)              -2568.5426     
     6      (1,1,6)              -2568.5410     
     7      (1,1,7)              -2568.5391     
     8      (1,1,8)              -2568.5366     
     9      (1,1,9)              -2568.5340     
     10     (1,21,1)             -2568.5334     
     11     (1,21,2)             -2568.5375     
     12     (1,21,3)             -2568.5407     
     13     (1,21,4)             -2568.5427     
     14     (1,21,5)             -2568.5448     
     15     (1,21,6)             -2568.5474     
     16     (1,21,7)             -2568.5498     
     17     (1,21,8)             -2568.5492     
     18     (1,21,9)             -2568.5425     
 -----------------------------------------------




 HEAD WILL BE SAVED ON UNIT 1016 AT END OF TIME STEP    4, STRESS PERIOD    5


  VOLUME BUDGET FOR ENTIRE MODEL AT END OF TIME STEP    4, STRESS PERIOD   5
  ---------------------------------------------------------------------------------------------------

     CUMULATIVE VOLUME      L**3       RATES FOR THIS TIME STEP      L**3/T          PACKAGE NAME    
     ------------------                 ------------------------                     ----------------

           IN:                                      IN:
           ---                                      ---
              STO-SS =           0.0000                STO-SS =           0.0000     STORAGE                          
              STO-SY =           0.0000                STO-SY =           0.0000     STORAGE                          
                 WEL =           0.0000                   WEL =           0.0000     WEL-1                            
                RCHA =    22980828.8652                  RCHA =      256500.0000     RCH-1                            
                 CHD =           0.0000                   CHD =           0.0000     CHD-FROM-IBOUND                  

            TOTAL IN =    22980828.8652              TOTAL IN =      256500.0000

          OUT:                                     OUT:
          ----                                     ----
              STO-SS =    17877558.1649                STO-SS =      202831.2643     STORAGE                          
              STO-SY =      658374.1627                STO-SY =        7434.9733     STORAGE                          
                 WEL =           0.0000                   WEL =           0.0000     WEL-1                            
                RCHA =           0.0000                  RCHA =           0.0000     RCH-1                            
                 CHD =     4444898.9941                   CHD =       46233.7627     CHD-FROM-IBOUND                  

           TOTAL OUT =    22980831.3218             TOTAL OUT =      256500.0004

            IN - OUT =          -2.4566              IN - OUT =      -3.6328E-04

 PERCENT DISCREPANCY =          -0.00     PERCENT DISCREPANCY =          -0.00




         TIME SUMMARY AT END OF TIME STEP    4 IN STRESS PERIOD    5
                    SECONDS     MINUTES      HOURS       DAYS        YEARS
                    -----------------------------------------------------------
   TIME STEP LENGTH 2.71468E+05  4524.5      75.408      3.1420     8.60231E-03
 STRESS PERIOD TIME 8.43311E+05  14055.      234.25      9.7605     2.67229E-02
         TOTAL TIME 8.70571E+06 1.45095E+05  2418.3      100.76     0.27587    


end timestep


start timestep kper="5" kstp="5" mode="normal"

 UBDSV1 SAVING     FLOW-JA-FACE ON UNIT   1015 AT TIME STEP      5, STRESS PERIOD      5
 UBDSV06 SAVING              WEL IN MODEL MUMODEL          PACKAGE MUMODEL         CONNECTED TO MODEL MUMODEL          PACKAGE WEL-1            ON UNIT   1015 AT TIME STEP      5, STRESS PERIOD      5
 UBDSV06 SAVING             RCHA IN MODEL MUMODEL          PACKAGE MUMODEL         CONNECTED TO MODEL MUMODEL          PACKAGE RCH-1            ON UNIT   1015 AT TIME STEP      5, STRESS PERIOD      5

 WEL PACKAGE (WEL-1) FLOW RATES   PERIOD      5   STEP        5
 -----------------------------------------------
   NUMBER   CELLID                    RATE      
 -----------------------------------------------
     1      (1,5,5)               0.0000000     
     2      (1,11,5)              0.0000000     
     3      (1,5,5)               0.0000000     
 -----------------------------------------------




 CHD PACKAGE (CHD-FROM-IBOUND) FLOW RATES   PERIOD      5   STEP        5
 -----------------------------------------------
   NUMBER   CELLID                    RATE      
 -----------------------------------------------
     1      (1,1,1)              -2576.1537     
     2      (1,1,2)              -2576.1574     
     3      (1,1,3)              -2576.1570     
     4      (1,1,4)              -2576.1549     
     5      (1,1,5)              -2576.1530     
     6      (1,1,6)              -2576.1514     
     7      (1,1,7)              -2576.1495     
     8      (1,1,8)              -2576.1470     
     9      (1,1,9)              -2576.1445     
     10     (1,21,1)             -2576.1439     
     11     (1,21,2)             -2576.1479     
     12     (1,21,3)             -2576.1511     
     13     (1,21,4)             -2576.1532     
     14     (1,21,5)             -2576.1552     
     15     (1,21,6)             -2576.1578     
     16     (1,21,7)             -2576.1601     
     17     (1,21,8)             -2576.1595     
     18     (1,21,9)             -2576.1529     
 -----------------------------------------------




 HEAD WILL BE SAVED ON UNIT 1016 AT END OF TIME STEP    5, STRESS PERIOD    5


  VOLUME BUDGET FOR ENTIRE MODEL AT END OF TIME STEP    5, STRESS PERIOD   5
  ---------------------------------------------------------------------------------------------------

     CUMULATIVE VOLUME      L**3       RATES FOR THIS TIME STEP      L**3/T          PACKAGE NAME    
     ------------------                 ------------------------                     ----------------

           IN:                                      IN:
           ---                                      ---
              STO-SS =           0.0000                STO-SS =           0.0000     STORAGE                          
              STO-SY =           0.0000                STO-SY =           0.0000     STORAGE                          
                 WEL =           0.0000                   WEL =           0.0000     WEL-1                            
                RCHA =    23947934.1436                  RCHA =      256500.0000     RCH-1                            
                 CHD =           0.0000                   CHD =           0.0000     CHD-FROM-IBOUND                  

            TOTAL IN =    23947934.1436              TOTAL IN =      256500.0000

          OUT:                                     OUT:
          ----                                     ----
              STO-SS =    18641822.6494                STO-SS =      202701.6548     STORAGE                          
              STO-SY =      686379.1024                STO-SY =        7427.5957     STORAGE                          
                 WEL =           0.0000                   WEL =           0.0000     WEL-1                            
                RCHA =           0.0000                  RCHA =           0.0000     RCH-1                            
                 CHD =     4619734.8507                   CHD =       46370.7501     CHD-FROM-IBOUND                  

           TOTAL OUT =    23947936.6026             TOTAL OUT =      256500.0006

            IN - OUT =          -2.4589              IN - OUT =      -6.1824E-04

 PERCENT DISCREPANCY =          -0.00     PERCENT DISCREPANCY =          -0.00




         TIME SUMMARY AT END OF TIME STEP    5 IN STRESS PERIOD    5
                    SECONDS     MINUTES      HOURS       DAYS        YEARS
                    -----------------------------------------------------------
   TIME STEP LENGTH 3.25762E+05  5429.4      90.489      3.7704     1.03228E-02
 STRESS PERIOD TIME 1.16907E+06  19485.      324.74      13.531     3.70457E-02
         TOTAL TIME 9.03147E+06 1.50525E+05  2508.7      104.53     0.28619    


end timestep


start timestep kper="5" kstp="6" mode="normal"

 UBDSV1 SAVING     FLOW-JA-FACE ON UNIT   1015 AT TIME STEP      6, STRESS PERIOD      5
 UBDSV06 SAVING              WEL IN MODEL MUMODEL          PACKAGE MUMODEL         CONNECTED TO MODEL MUMODEL          PACKAGE WEL-1            ON UNIT   1015 AT TIME STEP      6, STRESS PERIOD      5
 UBDSV06 SAVING             RCHA IN MODEL MUMODEL          PACKAGE MUMODEL         CONNECTED TO MODEL MUMODEL          PACKAGE RCH-1            ON UNIT   1015 AT TIME STEP      6, STRESS PERIOD      5

 WEL PACKAGE (WEL-1) FLOW RATES   PERIOD      5   STEP        6
 -----------------------------------------------
   NUMBER   CELLID                    RATE      
 -----------------------------------------------
     1      (1,5,5)               0.0000000     
     2      (1,11,5)              0.0000000     
     3      (1,5,5)               0.0000000     
 -----------------------------------------------




 CHD PACKAGE (CHD-FROM-IBOUND) FLOW RATES   PERIOD      5   STEP        6
 -----------------------------------------------
   NUMBER   CELLID                    RATE      
 -----------------------------------------------
     1      (1,1,1)              -2585.2215     
     2      (1,1,2)              -2585.2252     
     3      (1,1,3)              -2585.2248     
     4      (1,1,4)              -2585.2228     
     5      (1,1,5)              -2585.2209     
     6      (1,1,6)              -2585.2193     
     7      (1,1,7)              -2585.2174     
     8      (1,1,8)              -2585.2149     
     9      (1,1,9)              -2585.2124     
     10     (1,21,1)             -2585.2119     
     11     (1,21,2)             -2585.2158     
     12     (1,21,3)             -2585.2190     
     13     (1,21,4)             -2585.2210     
     14     (1,21,5)             -2585.2230     
     15     (1,21,6)             -2585.2256     
     16     (1,21,7)             -2585.2279     
     17     (1,21,8)             -2585.2273     
     18     (1,21,9)             -2585.2208     
 -----------------------------------------------




 HEAD WILL BE SAVED ON UNIT 1016 AT END OF TIME STEP    6, STRESS PERIOD    5


  VOLUME BUDGET FOR ENTIRE MODEL AT END OF TIME STEP    6, STRESS PERIOD   5
  ---------------------------------------------------------------------------------------------------

     CUMULATIVE VOLUME      L**3       RATES FOR THIS TIME STEP      L**3/T          PACKAGE NAME    
     ------------------                 ------------------------                     ----------------

           IN:                                      IN:
           ---                                      ---
              STO-SS =           0.0000                STO-SS =           0.0000     STORAGE                          
              STO-SY =           0.0000                STO-SY =           0.0000     STORAGE                          
                 WEL =           0.0000                   WEL =           0.0000     WEL-1                            
                RCHA =    25108460.4778                  RCHA =      256500.0000     RCH-1                            
                 CHD =           0.0000                   CHD =           0.0000     CHD-FROM-IBOUND                  

            TOTAL IN =    25108460.4778              TOTAL IN =      256500.0000

          OUT:                                     OUT:
          ----                                     ----
              STO-SS =    19558241.3248                STO-SS =      202547.2265     STORAGE                          
              STO-SY =      719945.2484                STO-SY =        7418.8032     STORAGE                          
                 WEL =           0.0000                   WEL =           0.0000     WEL-1                            
                RCHA =           0.0000                  RCHA =           0.0000     RCH-1                            
                 CHD =     4830276.3684                   CHD =       46533.9714     CHD-FROM-IBOUND                  

           TOTAL OUT =    25108462.9415             TOTAL OUT =      256500.0011

            IN - OUT =          -2.4637              IN - OUT =      -1.0546E-03

 PERCENT DISCREPANCY =          -0.00     PERCENT DISCREPANCY =          -0.00




         TIME SUMMARY AT END OF TIME STEP    6 IN STRESS PERIOD    5
                    SECONDS     MINUTES      HOURS       DAYS        YEARS
                    -----------------------------------------------------------
   TIME STEP LENGTH 3.90914E+05  6515.2      108.59      4.5245     1.23873E-02
 STRESS PERIOD TIME 1.55999E+06  26000.      433.33      18.055     4.94330E-02
         TOTAL TIME 9.42239E+06 1.57040E+05  2617.3      109.06     0.29858    


end timestep


start timestep kper="5" kstp="7" mode="normal"

 UBDSV1 SAVING     FLOW-JA-FACE ON UNIT   1015 AT TIME STEP      7, STRESS PERIOD      5
 UBDSV06 SAVING              WEL IN MODEL MUMODEL          PACKAGE MUMODEL         CONNECTED TO MODEL MUMODEL          PACKAGE WEL-1            ON UNIT   1015 AT TIME STEP      7, STRESS PERIOD      5
 UBDSV06 SAVING             RCHA IN MODEL MUMODEL          PACKAGE MUMODEL         CONNECTED TO MODEL MUMODEL          PACKAGE RCH-1            ON UNIT   1015 AT TIME STEP      7, STRESS PERIOD      5

 WEL PACKAGE (WEL-1) FLOW RATES   PERIOD      5   STEP        7
 -----------------------------------------------
   NUMBER   CELLID                    RATE      
 -----------------------------------------------
     1      (1,5,5)               0.0000000     
     2      (1,11,5)              0.0000000     
     3      (1,5,5)               0.0000000     
 -----------------------------------------------




 CHD PACKAGE (CHD-FROM-IBOUND) FLOW RATES   PERIOD      5   STEP        7
 -----------------------------------------------
   NUMBER   CELLID                    RATE      
 -----------------------------------------------
     1      (1,1,1)              -2596.0116     
     2      (1,1,2)              -2596.0152     
     3      (1,1,3)              -2596.0148     
     4      (1,1,4)              -2596.0128     
     5      (1,1,5)              -2596.0110     
     6      (1,1,6)              -2596.0093     
     7      (1,1,7)              -2596.0075     
     8      (1,1,8)              -2596.0050     
     9      (1,1,9)              -2596.0025     
     10     (1,21,1)             -2596.0020     
     11     (1,21,2)             -2596.0059     
     12     (1,21,3)             -2596.0091     
     13     (1,21,4)             -2596.0111     
     14     (1,21,5)             -2596.0131     
     15     (1,21,6)             -2596.0156     
     16     (1,21,7)             -2596.0179     
     17     (1,21,8)             -2596.0172     
     18     (1,21,9)             -2596.0108     
 -----------------------------------------------




 HEAD WILL BE SAVED ON UNIT 1016 AT END OF TIME STEP    7, STRESS PERIOD    5


  VOLUME BUDGET FOR ENTIRE MODEL AT END OF TIME STEP    7, STRESS PERIOD   5
  ---------------------------------------------------------------------------------------------------

     CUMULATIVE VOLUME      L**3       RATES FOR THIS TIME STEP      L**3/T          PACKAGE NAME    
     ------------------                 ------------------------                     ----------------

           IN:                                      IN:
           ---                                      ---
              STO-SS =           0.0000                STO-SS =           0.0000     STORAGE                          
              STO-SY =           0.0000                STO-SY =           0.0000     STORAGE                          
                 WEL =           0.0000                   WEL =           0.0000     WEL-1                            
                RCHA =    26501092.0788                  RCHA =      256500.0000     RCH-1                            
                 CHD =           0.0000                   CHD =           0.0000     CHD-FROM-IBOUND                  

            TOTAL IN =    26501092.0788              TOTAL IN =      256500.0000

          OUT:                                     OUT:
          ----                                     ----
              STO-SS =    20656946.0653                STO-SS =      202363.4720     STORAGE                          
              STO-SY =      760167.8026                STO-SY =        7408.3377     STORAGE                          
                 WEL =           0.0000                   WEL =           0.0000     WEL-1                            
                RCHA =           0.0000                  RCHA =           0.0000     RCH-1                            
                 CHD =     5083980.6843                   CHD =       46728.1921     CHD-FROM-IBOUND                  

           TOTAL OUT =    26501094.5522             TOTAL OUT =      256500.0018

            IN - OUT =          -2.4734              IN - OUT =      -1.7869E-03

 PERCENT DISCREPANCY =          -0.00     PERCENT DISCREPANCY =          -0.00




         TIME SUMMARY AT END OF TIME STEP    7 IN STRESS PERIOD    5
                    SECONDS     MINUTES      HOURS       DAYS        YEARS
                    -----------------------------------------------------------
   TIME STEP LENGTH 4.69097E+05  7818.3      130.30      5.4294     1.48648E-02
 STRESS PERIOD TIME 2.02908E+06  33818.      563.63      23.485     6.42978E-02
         TOTAL TIME 9.89148E+06 1.64858E+05  2747.6      114.48     0.31344    


end timestep


start timestep kper="5" kstp="8" mode="normal"

 UBDSV1 SAVING     FLOW-JA-FACE ON UNIT   1015 AT TIME STEP      8, STRESS PERIOD      5
 UBDSV06 SAVING              WEL IN MODEL MUMODEL          PACKAGE MUMODEL         CONNECTED TO MODEL MUMODEL          PACKAGE WEL-1            ON UNIT   1015 AT TIME STEP      8, STRESS PERIOD      5
 UBDSV06 SAVING             RCHA IN MODEL MUMODEL          PACKAGE MUMODEL         CONNECTED TO MODEL MUMODEL          PACKAGE RCH-1            ON UNIT   1015 AT TIME STEP      8, STRESS PERIOD      5

 WEL PACKAGE (WEL-1) FLOW RATES   PERIOD      5   STEP        8
 -----------------------------------------------
   NUMBER   CELLID                    RATE      
 -----------------------------------------------
     1      (1,5,5)               0.0000000     
     2      (1,11,5)              0.0000000     
     3      (1,5,5)               0.0000000     
 -----------------------------------------------




 CHD PACKAGE (CHD-FROM-IBOUND) FLOW RATES   PERIOD      5   STEP        8
 -----------------------------------------------
   NUMBER   CELLID                    RATE      
 -----------------------------------------------
     1      (1,1,1)              -2608.8309     
     2      (1,1,2)              -2608.8344     
     3      (1,1,3)              -2608.8340     
     4      (1,1,4)              -2608.8321     
     5      (1,1,5)              -2608.8303     
     6      (1,1,6)              -2608.8287     
     7      (1,1,7)              -2608.8268     
     8      (1,1,8)              -2608.8244     
     9      (1,1,9)              -2608.8219     
     10     (1,21,1)             -2608.8215     
     11     (1,21,2)             -2608.8253     
     12     (1,21,3)             -2608.8284     
     13     (1,21,4)             -2608.8304     
     14     (1,21,5)             -2608.8324     
     15     (1,21,6)             -2608.8349     
     16     (1,21,7)             -2608.8371     
     17     (1,21,8)             -2608.8364     
     18     (1,21,9)             -2608.8301     
 -----------------------------------------------




 HEAD WILL BE SAVED ON UNIT 1016 AT END OF TIME STEP    8, STRESS PERIOD    5


  VOLUME BUDGET FOR ENTIRE MODEL AT END OF TIME STEP    8, STRESS PERIOD   5
  ---------------------------------------------------------------------------------------------------

     CUMULATIVE VOLUME      L**3       RATES FOR THIS TIME STEP      L**3/T          PACKAGE NAME    
     ------------------                 ------------------------                     ----------------

           IN:                                      IN:
           ---                                      ---
              STO-SS =           0.0000                STO-SS =           0.0000     STORAGE                          
              STO-SY =           0.0000                STO-SY =           0.0000     STORAGE                          
                 WEL =           0.0000                   WEL =           0.0000     WEL-1                            
                RCHA =    28172250.0000                  RCHA =      256500.0000     RCH-1                            
                 CHD =           0.0000                   CHD =           0.0000     CHD-FROM-IBOUND                  

            TOTAL IN =    28172250.0000              TOTAL IN =      256500.0000

          OUT:                                     OUT:
          ----                                     ----
              STO-SS =    21973969.4225                STO-SS =      202145.1635     STORAGE                          
              STO-SY =      808353.8318                STO-SY =        7395.8998     STORAGE                          
                 WEL =           0.0000                   WEL =           0.0000     WEL-1                            
                RCHA =           0.0000                  RCHA =           0.0000     RCH-1                            
                 CHD =     5389929.2387                   CHD =       46958.9398     CHD-FROM-IBOUND                  

           TOTAL OUT =    28172252.4931             TOTAL OUT =      256500.0030

            IN - OUT =          -2.4931              IN - OUT =      -3.0171E-03

 PERCENT DISCREPANCY =          -0.00     PERCENT DISCREPANCY =          -0.00




         TIME SUMMARY AT END OF TIME STEP    8 IN STRESS PERIOD    5
                    SECONDS     MINUTES      HOURS       DAYS        YEARS
                    -----------------------------------------------------------
   TIME STEP LENGTH 5.62916E+05  9381.9      156.37      6.5152     1.78377E-02
 STRESS PERIOD TIME 2.59200E+06  43200.      720.00      30.000     8.21355E-02
         TOTAL TIME 1.04544E+07 1.74240E+05  2904.0      121.00     0.33128    


end timestep


start timestep kper="6" kstp="1" mode="normal"


 OUTPUT CONTROL FOR STRESS PERIOD 6 IS REPEATED USING SETTINGS FROM A PREVIOUS STRESS PERIOD.


 STRESS PERIOD 6 IS TRANSIENT


 REUSING WELS FROM LAST STRESS PERIOD

 REUSING CHDS FROM LAST STRESS PERIOD
 UBDSV1 SAVING     FLOW-JA-FACE ON UNIT   1015 AT TIME STEP      1, STRESS PERIOD      6
 UBDSV06 SAVING              WEL IN MODEL MUMODEL          PACKAGE MUMODEL         CONNECTED TO MODEL MUMODEL          PACKAGE WEL-1            ON UNIT   1015 AT TIME STEP      1, STRESS PERIOD      6
 UBDSV06 SAVING             RCHA IN MODEL MUMODEL          PACKAGE MUMODEL         CONNECTED TO MODEL MUMODEL          PACKAGE RCH-1            ON UNIT   1015 AT TIME STEP      1, STRESS PERIOD      6

 WEL PACKAGE (WEL-1) FLOW RATES   PERIOD      6   STEP        1
 -----------------------------------------------
   NUMBER   CELLID                    RATE      
 -----------------------------------------------
     1      (1,5,5)               0.0000000     
     2      (1,11,5)              0.0000000     
     3      (1,5,5)               0.0000000     
 -----------------------------------------------




 CHD PACKAGE (CHD-FROM-IBOUND) FLOW RATES   PERIOD      6   STEP        1
 -----------------------------------------------
   NUMBER   CELLID                    RATE      
 -----------------------------------------------
     1      (1,1,1)              -2608.9592     
     2      (1,1,2)              -2608.9626     
     3      (1,1,3)              -2608.9623     
     4      (1,1,4)              -2608.9604     
     5      (1,1,5)              -2608.9585     
     6      (1,1,6)              -2608.9569     
     7      (1,1,7)              -2608.9551     
     8      (1,1,8)              -2608.9526     
     9      (1,1,9)              -2608.9501     
     10     (1,21,1)             -2608.9498     
     11     (1,21,2)             -2608.9536     
     12     (1,21,3)             -2608.9567     
     13     (1,21,4)             -2608.9587     
     14     (1,21,5)             -2608.9606     
     15     (1,21,6)             -2608.9631     
     16     (1,21,7)             -2608.9653     
     17     (1,21,8)             -2608.9646     
     18     (1,21,9)             -2608.9584     
 -----------------------------------------------




 HEAD WILL BE SAVED ON UNIT 1016 AT END OF TIME STEP    1, STRESS PERIOD    6


  VOLUME BUDGET FOR ENTIRE MODEL AT END OF TIME STEP    1, STRESS PERIOD   6
  ---------------------------------------------------------------------------------------------------

     CUMULATIVE VOLUME      L**3       RATES FOR THIS TIME STEP      L**3/T          PACKAGE NAME    
     ------------------                 ------------------------                     ----------------

           IN:                                      IN:
           ---                                      ---
              STO-SS =           0.0000                STO-SS =           0.0000     STORAGE                          
              STO-SY =           0.0000                STO-SY =           0.0000     STORAGE                          
                 WEL =           0.0000                   WEL =           0.0000     WEL-1                            
                RCHA =    28332895.2741                  RCHA =       85500.0000     RCH-1                            
                 CHD =           0.0000                   CHD =           0.0000     CHD-FROM-IBOUND                  

            TOTAL IN =    28332895.2741              TOTAL IN =       85500.0000

          OUT:                                     OUT:
          ----                                     ----
              STO-SS =    22043869.5103                STO-SS =       37202.8218     STORAGE                          
              STO-SY =      810864.6938                STO-SY =        1336.3524     STORAGE                          
                 WEL =           0.0000                   WEL =           0.0000     WEL-1                            
                RCHA =           0.0000                  RCHA =           0.0000     RCH-1                            
                 CHD =     5478164.3573                   CHD =       46961.2485     CHD-FROM-IBOUND                  

           TOTAL OUT =    28332898.5613             TOTAL OUT =       85500.4227

            IN - OUT =          -3.2873              IN - OUT =          -0.4227

 PERCENT DISCREPANCY =          -0.00     PERCENT DISCREPANCY =          -0.00




         TIME SUMMARY AT END OF TIME STEP    1 IN STRESS PERIOD    6
                    SECONDS     MINUTES      HOURS       DAYS        YEARS
                    -----------------------------------------------------------
   TIME STEP LENGTH 1.62336E+05  2705.6      45.093      1.8789     5.14413E-03
 STRESS PERIOD TIME 1.62336E+05  2705.6      45.093      1.8789     5.14413E-03
         TOTAL TIME 1.06167E+07 1.76946E+05  2949.1      122.88     0.33642    


end timestep


start timestep kper="6" kstp="2" mode="normal"

 UBDSV1 SAVING     FLOW-JA-FACE ON UNIT   1015 AT TIME STEP      2, STRESS PERIOD      6
 UBDSV06 SAVING              WEL IN MODEL MUMODEL          PACKAGE MUMODEL         CONNECTED TO MODEL MUMODEL          PACKAGE WEL-1            ON UNIT   1015 AT TIME STEP      2, STRESS PERIOD      6
 UBDSV06 SAVING             RCHA IN MODEL MUMODEL          PACKAGE MUMODEL         CONNECTED TO MODEL MUMODEL          PACKAGE RCH-1            ON UNIT   1015 AT TIME STEP      2, STRESS PERIOD      6

 WEL PACKAGE (WEL-1) FLOW RATES   PERIOD      6   STEP        2
 -----------------------------------------------
   NUMBER   CELLID                    RATE      
 -----------------------------------------------
     1      (1,5,5)               0.0000000     
     2      (1,11,5)              0.0000000     
     3      (1,5,5)               0.0000000     
 -----------------------------------------------




 CHD PACKAGE (CHD-FROM-IBOUND) FLOW RATES   PERIOD      6   STEP        2
 -----------------------------------------------
   NUMBER   CELLID                    RATE      
 -----------------------------------------------
     1      (1,1,1)              -2609.1222     
     2      (1,1,2)              -2609.1256     
     3      (1,1,3)              -2609.1253     
     4      (1,1,4)              -2609.1234     
     5      (1,1,5)              -2609.1216     
     6      (1,1,6)              -2609.1200     
     7      (1,1,7)              -2609.1181     
     8      (1,1,8)              -2609.1157     
     9      (1,1,9)              -2609.1132     
     10     (1,21,1)             -2609.1128     
     11     (1,21,2)             -2609.1167     
     12     (1,21,3)             -2609.1197     
     13     (1,21,4)             -2609.1217     
     14     (1,21,5)             -2609.1237     
     15     (1,21,6)             -2609.1261     
     16     (1,21,7)             -2609.1283     
     17     (1,21,8)             -2609.1276     
     18     (1,21,9)             -2609.1214     
 -----------------------------------------------




 HEAD WILL BE SAVED ON UNIT 1016 AT END OF TIME STEP    2, STRESS PERIOD    6


  VOLUME BUDGET FOR ENTIRE MODEL AT END OF TIME STEP    2, STRESS PERIOD   6
  ---------------------------------------------------------------------------------------------------

     CUMULATIVE VOLUME      L**3       RATES FOR THIS TIME STEP      L**3/T          PACKAGE NAME    
     ------------------                 ------------------------                     ----------------

           IN:                                      IN:
           ---                                      ---
              STO-SS =           0.0000                STO-SS =           0.0000     STORAGE                          
              STO-SY =           0.0000                STO-SY =           0.0000     STORAGE                          
                 WEL =           0.0000                   WEL =           0.0000     WEL-1                            
                RCHA =    28525669.6030                  RCHA =       85500.0000     RCH-1                            
                 CHD =           0.0000                   CHD =           0.0000     CHD-FROM-IBOUND                  

            TOTAL IN =    28525669.6030              TOTAL IN =       85500.0000

          OUT:                                     OUT:
          ----                                     ----
              STO-SS =    22127743.4280                STO-SS =       37200.0774     STORAGE                          
              STO-SY =      813877.4885                STO-SY =        1336.2461     STORAGE                          
                 WEL =           0.0000                   WEL =           0.0000     WEL-1                            
                RCHA =           0.0000                  RCHA =           0.0000     RCH-1                            
                 CHD =     5584053.1165                   CHD =       46964.1833     CHD-FROM-IBOUND                  

           TOTAL OUT =    28525674.0329             TOTAL OUT =       85500.5068

            IN - OUT =          -4.4299              IN - OUT =          -0.5068

 PERCENT DISCREPANCY =          -0.00     PERCENT DISCREPANCY =          -0.00




         TIME SUMMARY AT END OF TIME STEP    2 IN STRESS PERIOD    6
                    SECONDS     MINUTES      HOURS       DAYS        YEARS
                    -----------------------------------------------------------
   TIME STEP LENGTH 1.94804E+05  3246.7      54.112      2.2547     6.17295E-03
 STRESS PERIOD TIME 3.57140E+05  5952.3      99.206      4.1336     1.13171E-02
         TOTAL TIME 1.08115E+07 1.80192E+05  3003.2      125.13     0.34260    


end timestep


start timestep kper="6" kstp="3" mode="normal"

 UBDSV1 SAVING     FLOW-JA-FACE ON UNIT   1015 AT TIME STEP      3, STRESS PERIOD      6
 UBDSV06 SAVING              WEL IN MODEL MUMODEL          PACKAGE MUMODEL         CONNECTED TO MODEL MUMODEL          PACKAGE WEL-1            ON UNIT   1015 AT TIME STEP      3, STRESS PERIOD      6
 UBDSV06 SAVING             RCHA IN MODEL MUMODEL          PACKAGE MUMODEL         CONNECTED TO MODEL MUMODEL          PACKAGE RCH-1            ON UNIT   1015 AT TIME STEP      3, STRESS PERIOD      6

 WEL PACKAGE (WEL-1) FLOW RATES   PERIOD      6   STEP        3
 -----------------------------------------------
   NUMBER   CELLID                    RATE      
 -----------------------------------------------
     1      (1,5,5)               0.0000000     
     2      (1,11,5)              0.0000000     
     3      (1,5,5)               0.0000000     
 -----------------------------------------------




 CHD PACKAGE (CHD-FROM-IBOUND) FLOW RATES   PERIOD      6   STEP        3
 -----------------------------------------------
   NUMBER   CELLID                    RATE      
 -----------------------------------------------
     1      (1,1,1)              -2609.3319     
     2      (1,1,2)              -2609.3352     
     3      (1,1,3)              -2609.3349     
     4      (1,1,4)              -2609.3331     
     5      (1,1,5)              -2609.3312     
     6      (1,1,6)              -2609.3296     
     7      (1,1,7)              -2609.3278     
     8      (1,1,8)              -2609.3254     
     9      (1,1,9)              -2609.3229     
     10     (1,21,1)             -2609.3226     
     11     (1,21,2)             -2609.3263     
     12     (1,21,3)             -2609.3294     
     13     (1,21,4)             -2609.3314     
     14     (1,21,5)             -2609.3333     
     15     (1,21,6)             -2609.3358     
     16     (1,21,7)             -2609.3379     
     17     (1,21,8)             -2609.3371     
     18     (1,21,9)             -2609.3311     
 -----------------------------------------------




 HEAD WILL BE SAVED ON UNIT 1016 AT END OF TIME STEP    3, STRESS PERIOD    6


  VOLUME BUDGET FOR ENTIRE MODEL AT END OF TIME STEP    3, STRESS PERIOD   6
  ---------------------------------------------------------------------------------------------------

     CUMULATIVE VOLUME      L**3       RATES FOR THIS TIME STEP      L**3/T          PACKAGE NAME    
     ------------------                 ------------------------                     ----------------

           IN:                                      IN:
           ---                                      ---
              STO-SS =           0.0000                STO-SS =           0.0000     STORAGE                          
              STO-SY =           0.0000                STO-SY =           0.0000     STORAGE                          
                 WEL =           0.0000                   WEL =           0.0000     WEL-1                            
                RCHA =    28756998.7977                  RCHA =       85500.0000     RCH-1                            
                 CHD =           0.0000                   CHD =           0.0000     CHD-FROM-IBOUND                  

            TOTAL IN =    28756998.7977              TOTAL IN =       85500.0000

          OUT:                                     OUT:
          ----                                     ----
              STO-SS =    22228380.9535                STO-SS =       37195.9469     STORAGE                          
              STO-SY =      817492.4365                STO-SY =        1336.0962     STORAGE                          
                 WEL =           0.0000                   WEL =           0.0000     WEL-1                            
                RCHA =           0.0000                  RCHA =           0.0000     RCH-1                            
                 CHD =     5711129.8377                   CHD =       46967.9570     CHD-FROM-IBOUND                  

           TOTAL OUT =    28757003.2277             TOTAL OUT =       85500.0000

            IN - OUT =          -4.4300              IN - OUT =      -1.2457E-05

 PERCENT DISCREPANCY =          -0.00     PERCENT DISCREPANCY =          -0.00




         TIME SUMMARY AT END OF TIME STEP    3 IN STRESS PERIOD    6
                    SECONDS     MINUTES      HOURS       DAYS        YEARS
                    -----------------------------------------------------------
   TIME STEP LENGTH 2.33764E+05  3896.1      64.935      2.7056     7.40754E-03
 STRESS PERIOD TIME 5.90904E+05  9848.4      164.14      6.8392     1.87246E-02
         TOTAL TIME 1.10453E+07 1.84088E+05  3068.1      127.84     0.35000    


end timestep


start timestep kper="6" kstp="4" mode="normal"

 UBDSV1 SAVING     FLOW-JA-FACE ON UNIT   1015 AT TIME STEP      4, STRESS PERIOD      6
 UBDSV06 SAVING              WEL IN MODEL MUMODEL          PACKAGE MUMODEL         CONNECTED TO MODEL MUMODEL          PACKAGE WEL-1            ON UNIT   1015 AT TIME STEP      4, STRESS PERIOD      6
 UBDSV06 SAVING             RCHA IN MODEL MUMODEL          PACKAGE MUMODEL         CONNECTED TO MODEL MUMODEL          PACKAGE RCH-1            ON UNIT   1015 AT TIME STEP      4, STRESS PERIOD      6

 WEL PACKAGE (WEL-1) FLOW RATES   PERIOD      6   STEP        4
 -----------------------------------------------
   NUMBER   CELLID                    RATE      
 -----------------------------------------------
     1      (1,5,5)               0.0000000     
     2      (1,11,5)              0.0000000     
     3      (1,5,5)               0.0000000     
 -----------------------------------------------




 CHD PACKAGE (CHD-FROM-IBOUND) FLOW RATES   PERIOD      6   STEP        4
 -----------------------------------------------
   NUMBER   CELLID                    RATE      
 -----------------------------------------------
     1      (1,1,1)              -2609.5794     
     2      (1,1,2)              -2609.5827     
     3      (1,1,3)              -2609.5824     
     4      (1,1,4)              -2609.5806     
     5      (1,1,5)              -2609.5788     
     6      (1,1,6)              -2609.5772     
     7      (1,1,7)              -2609.5753     
     8      (1,1,8)              -2609.5729     
     9      (1,1,9)              -2609.5704     
     10     (1,21,1)             -2609.5701     
     11     (1,21,2)             -2609.5739     
     12     (1,21,3)             -2609.5769     
     13     (1,21,4)             -2609.5789     
     14     (1,21,5)             -2609.5809     
     15     (1,21,6)             -2609.5833     
     16     (1,21,7)             -2609.5854     
     17     (1,21,8)             -2609.5846     
     18     (1,21,9)             -2609.5786     
 -----------------------------------------------




 HEAD WILL BE SAVED ON UNIT 1016 AT END OF TIME STEP    4, STRESS PERIOD    6


  VOLUME BUDGET FOR ENTIRE MODEL AT END OF TIME STEP    4, STRESS PERIOD   6
  ---------------------------------------------------------------------------------------------------

     CUMULATIVE VOLUME      L**3       RATES FOR THIS TIME STEP      L**3/T          PACKAGE NAME    
     ------------------                 ------------------------                     ----------------

           IN:                                      IN:
           ---                                      ---
              STO-SS =           0.0000                STO-SS =           0.0000     STORAGE                          
              STO-SY =           0.0000                STO-SY =           0.0000     STORAGE                          
                 WEL =           0.0000                   WEL =           0.0000     WEL-1                            
                RCHA =    29034593.8313                  RCHA =       85500.0000     RCH-1                            
                 CHD =           0.0000                   CHD =           0.0000     CHD-FROM-IBOUND                  

            TOTAL IN =    29034593.8313              TOTAL IN =       85500.0000

          OUT:                                     OUT:
          ----                                     ----
              STO-SS =    22349132.0563                STO-SS =       37191.6570     STORAGE                          
              STO-SY =      821829.8360                STO-SY =        1335.9305     STORAGE                          
                 WEL =           0.0000                   WEL =           0.0000     WEL-1                            
                RCHA =           0.0000                  RCHA =           0.0000     RCH-1                            
                 CHD =     5863636.3691                   CHD =       46972.4125     CHD-FROM-IBOUND                  

           TOTAL OUT =    29034598.2614             TOTAL OUT =       85500.0000

            IN - OUT =          -4.4300              IN - OUT =      -1.9405E-05

 PERCENT DISCREPANCY =          -0.00     PERCENT DISCREPANCY =          -0.00




         TIME SUMMARY AT END OF TIME STEP    4 IN STRESS PERIOD    6
                    SECONDS     MINUTES      HOURS       DAYS        YEARS
                    -----------------------------------------------------------
   TIME STEP LENGTH 2.80517E+05  4675.3      77.921      3.2467     8.88905E-03
 STRESS PERIOD TIME 8.71421E+05  14524.      242.06      10.086     2.76137E-02
         TOTAL TIME 1.13258E+07 1.88764E+05  3146.1      131.09     0.35889    


end timestep


start timestep kper="6" kstp="5" mode="normal"

 UBDSV1 SAVING     FLOW-JA-FACE ON UNIT   1015 AT TIME STEP      5, STRESS PERIOD      6
 UBDSV06 SAVING              WEL IN MODEL MUMODEL          PACKAGE MUMODEL         CONNECTED TO MODEL MUMODEL          PACKAGE WEL-1            ON UNIT   1015 AT TIME STEP      5, STRESS PERIOD      6
 UBDSV06 SAVING             RCHA IN MODEL MUMODEL          PACKAGE MUMODEL         CONNECTED TO MODEL MUMODEL          PACKAGE RCH-1            ON UNIT   1015 AT TIME STEP      5, STRESS PERIOD      6

 WEL PACKAGE (WEL-1) FLOW RATES   PERIOD      6   STEP        5
 -----------------------------------------------
   NUMBER   CELLID                    RATE      
 -----------------------------------------------
     1      (1,5,5)               0.0000000     
     2      (1,11,5)              0.0000000     
     3      (1,5,5)               0.0000000     
 -----------------------------------------------




 CHD PACKAGE (CHD-FROM-IBOUND) FLOW RATES   PERIOD      6   STEP        5
 -----------------------------------------------
   NUMBER   CELLID                    RATE      
 -----------------------------------------------
     1      (1,1,1)              -2609.8844     
     2      (1,1,2)              -2609.8877     
     3      (1,1,3)              -2609.8874     
     4      (1,1,4)              -2609.8856     
     5      (1,1,5)              -2609.8838     
     6      (1,1,6)              -2609.8822     
     7      (1,1,7)              -2609.8803     
     8      (1,1,8)              -2609.8779     
     9      (1,1,9)              -2609.8755     
     10     (1,21,1)             -2609.8752     
     11     (1,21,2)             -2609.8789     
     12     (1,21,3)             -2609.8819     
     13     (1,21,4)             -2609.8839     
     14     (1,21,5)             -2609.8858     
     15     (1,21,6)             -2609.8882     
     16     (1,21,7)             -2609.8903     
     17     (1,21,8)             -2609.8895     
     18     (1,21,9)             -2609.8836     
 -----------------------------------------------




 HEAD WILL BE SAVED ON UNIT 1016 AT END OF TIME STEP    5, STRESS PERIOD    6


  VOLUME BUDGET FOR ENTIRE MODEL AT END OF TIME STEP    5, STRESS PERIOD   6
  ---------------------------------------------------------------------------------------------------

     CUMULATIVE VOLUME      L**3       RATES FOR THIS TIME STEP      L**3/T          PACKAGE NAME    
     ------------------                 ------------------------                     ----------------

           IN:                                      IN:
           ---                                      ---
              STO-SS =           0.0000                STO-SS =           0.0000     STORAGE                          
              STO-SY =           0.0000                STO-SY =           0.0000     STORAGE                          
                 WEL =           0.0000                   WEL =           0.0000     WEL-1                            
                RCHA =    29367707.8717                  RCHA =       85500.0000     RCH-1                            
                 CHD =           0.0000                   CHD =           0.0000     CHD-FROM-IBOUND                  

            TOTAL IN =    29367707.8717              TOTAL IN =       85500.0000

          OUT:                                     OUT:
          ----                                     ----
              STO-SS =    22494012.7919                STO-SS =       37186.3728     STORAGE                          
              STO-SY =      827033.9151                STO-SY =        1335.7250     STORAGE                          
                 WEL =           0.0000                   WEL =           0.0000     WEL-1                            
                RCHA =           0.0000                  RCHA =           0.0000     RCH-1                            
                 CHD =     6046665.5948                   CHD =       46977.9022     CHD-FROM-IBOUND                  

           TOTAL OUT =    29367712.3018             TOTAL OUT =       85500.0000

            IN - OUT =          -4.4301              IN - OUT =      -2.9807E-05

 PERCENT DISCREPANCY =          -0.00     PERCENT DISCREPANCY =          -0.00




         TIME SUMMARY AT END OF TIME STEP    5 IN STRESS PERIOD    6
                    SECONDS     MINUTES      HOURS       DAYS        YEARS
                    -----------------------------------------------------------
   TIME STEP LENGTH 3.36621E+05  5610.3      93.506      3.8961     1.06669E-02
 STRESS PERIOD TIME 1.20804E+06  20134.      335.57      13.982     3.82805E-02
         TOTAL TIME 1.16624E+07 1.94374E+05  3239.6      134.98     0.36956    


end timestep


start timestep kper="6" kstp="6" mode="normal"

 UBDSV1 SAVING     FLOW-JA-FACE ON UNIT   1015 AT TIME STEP      6, STRESS PERIOD      6
 UBDSV06 SAVING              WEL IN MODEL MUMODEL          PACKAGE MUMODEL         CONNECTED TO MODEL MUMODEL          PACKAGE WEL-1            ON UNIT   1015 AT TIME STEP      6, STRESS PERIOD      6
 UBDSV06 SAVING             RCHA IN MODEL MUMODEL          PACKAGE MUMODEL         CONNECTED TO MODEL MUMODEL          PACKAGE RCH-1            ON UNIT   1015 AT TIME STEP      6, STRESS PERIOD      6

 WEL PACKAGE (WEL-1) FLOW RATES   PERIOD      6   STEP        6
 -----------------------------------------------
   NUMBER   CELLID                    RATE      
 -----------------------------------------------
     1      (1,5,5)               0.0000000     
     2      (1,11,5)              0.0000000     
     3      (1,5,5)               0.0000000     
 -----------------------------------------------




 CHD PACKAGE (CHD-FROM-IBOUND) FLOW RATES   PERIOD      6   STEP        6
 -----------------------------------------------
   NUMBER   CELLID                    RATE      
 -----------------------------------------------
     1      (1,1,1)              -2610.2615     
     2      (1,1,2)              -2610.2647     
     3      (1,1,3)              -2610.2645     
     4      (1,1,4)              -2610.2627     
     5      (1,1,5)              -2610.2609     
     6      (1,1,6)              -2610.2593     
     7      (1,1,7)              -2610.2575     
     8      (1,1,8)              -2610.2551     
     9      (1,1,9)              -2610.2526     
     10     (1,21,1)             -2610.2524     
     11     (1,21,2)             -2610.2561     
     12     (1,21,3)             -2610.2591     
     13     (1,21,4)             -2610.2610     
     14     (1,21,5)             -2610.2629     
     15     (1,21,6)             -2610.2653     
     16     (1,21,7)             -2610.2674     
     17     (1,21,8)             -2610.2665     
     18     (1,21,9)             -2610.2607     
 -----------------------------------------------




 HEAD WILL BE SAVED ON UNIT 1016 AT END OF TIME STEP    6, STRESS PERIOD    6


  VOLUME BUDGET FOR ENTIRE MODEL AT END OF TIME STEP    6, STRESS PERIOD   6
  ---------------------------------------------------------------------------------------------------

     CUMULATIVE VOLUME      L**3       RATES FOR THIS TIME STEP      L**3/T          PACKAGE NAME    
     ------------------                 ------------------------                     ----------------

           IN:                                      IN:
           ---                                      ---
              STO-SS =           0.0000                STO-SS =           0.0000     STORAGE                          
              STO-SY =           0.0000                STO-SY =           0.0000     STORAGE                          
                 WEL =           0.0000                   WEL =           0.0000     WEL-1                            
                RCHA =    29767444.7201                  RCHA =       85500.0000     RCH-1                            
                 CHD =           0.0000                   CHD =           0.0000     CHD-FROM-IBOUND                  

            TOTAL IN =    29767444.7201              TOTAL IN =       85500.0000

          OUT:                                     OUT:
          ----                                     ----
              STO-SS =    22667839.1350                STO-SS =       37179.8407     STORAGE                          
              STO-SY =      833277.6145                STO-SY =        1335.4693     STORAGE                          
                 WEL =           0.0000                   WEL =           0.0000     WEL-1                            
                RCHA =           0.0000                  RCHA =           0.0000     RCH-1                            
                 CHD =     6266332.4010                   CHD =       46984.6901     CHD-FROM-IBOUND                  

           TOTAL OUT =    29767449.1505             TOTAL OUT =       85500.0001

            IN - OUT =          -4.4304              IN - OUT =      -5.2727E-05

 PERCENT DISCREPANCY =          -0.00     PERCENT DISCREPANCY =          -0.00




         TIME SUMMARY AT END OF TIME STEP    6 IN STRESS PERIOD    6
                    SECONDS     MINUTES      HOURS       DAYS        YEARS
                    -----------------------------------------------------------
   TIME STEP LENGTH 4.03945E+05  6732.4      112.21      4.6753     1.28002E-02
 STRESS PERIOD TIME 1.61199E+06  26866.      447.77      18.657     5.10808E-02
         TOTAL TIME 1.20664E+07 2.01106E+05  3351.8      139.66     0.38236    


end timestep


start timestep kper="6" kstp="7" mode="normal"

 UBDSV1 SAVING     FLOW-JA-FACE ON UNIT   1015 AT TIME STEP      7, STRESS PERIOD      6
 UBDSV06 SAVING              WEL IN MODEL MUMODEL          PACKAGE MUMODEL         CONNECTED TO MODEL MUMODEL          PACKAGE WEL-1            ON UNIT   1015 AT TIME STEP      7, STRESS PERIOD      6
 UBDSV06 SAVING             RCHA IN MODEL MUMODEL          PACKAGE MUMODEL         CONNECTED TO MODEL MUMODEL          PACKAGE RCH-1            ON UNIT   1015 AT TIME STEP      7, STRESS PERIOD      6

 WEL PACKAGE (WEL-1) FLOW RATES   PERIOD      6   STEP        7
 -----------------------------------------------
   NUMBER   CELLID                    RATE      
 -----------------------------------------------
     1      (1,5,5)               0.0000000     
     2      (1,11,5)              0.0000000     
     3      (1,5,5)               0.0000000     
 -----------------------------------------------




 CHD PACKAGE (CHD-FROM-IBOUND) FLOW RATES   PERIOD      6   STEP        7
 -----------------------------------------------
   NUMBER   CELLID                    RATE      
 -----------------------------------------------
     1      (1,1,1)              -2610.7295     
     2      (1,1,2)              -2610.7327     
     3      (1,1,3)              -2610.7325     
     4      (1,1,4)              -2610.7307     
     5      (1,1,5)              -2610.7289     
     6      (1,1,6)              -2610.7273     
     7      (1,1,7)              -2610.7255     
     8      (1,1,8)              -2610.7231     
     9      (1,1,9)              -2610.7207     
     10     (1,21,1)             -2610.7205     
     11     (1,21,2)             -2610.7242     
     12     (1,21,3)             -2610.7271     
     13     (1,21,4)             -2610.7291     
     14     (1,21,5)             -2610.7310     
     15     (1,21,6)             -2610.7333     
     16     (1,21,7)             -2610.7353     
     17     (1,21,8)             -2610.7344     
     18     (1,21,9)             -2610.7288     
 -----------------------------------------------




 HEAD WILL BE SAVED ON UNIT 1016 AT END OF TIME STEP    7, STRESS PERIOD    6


  VOLUME BUDGET FOR ENTIRE MODEL AT END OF TIME STEP    7, STRESS PERIOD   6
  ---------------------------------------------------------------------------------------------------

     CUMULATIVE VOLUME      L**3       RATES FOR THIS TIME STEP      L**3/T          PACKAGE NAME    
     ------------------                 ------------------------                     ----------------

           IN:                                      IN:
           ---                                      ---
              STO-SS =           0.0000                STO-SS =           0.0000     STORAGE                          
              STO-SY =           0.0000                STO-SY =           0.0000     STORAGE                          
                 WEL =           0.0000                   WEL =           0.0000     WEL-1                            
                RCHA =    30247128.9383                  RCHA =       85500.0000     RCH-1                            
                 CHD =           0.0000                   CHD =           0.0000     CHD-FROM-IBOUND                  

            TOTAL IN =    30247128.9383              TOTAL IN =       85500.0000

          OUT:                                     OUT:
          ----                                     ----
              STO-SS =    22876385.2761                STO-SS =       37171.7359     STORAGE                          
              STO-SY =      840768.2600                STO-SY =        1335.1496     STORAGE                          
                 WEL =           0.0000                   WEL =           0.0000     WEL-1                            
                RCHA =           0.0000                  RCHA =           0.0000     RCH-1                            
                 CHD =     6529979.8331                   CHD =       46993.1146     CHD-FROM-IBOUND                  

           TOTAL OUT =    30247133.3692             TOTAL OUT =       85500.0001

            IN - OUT =          -4.4309              IN - OUT =      -9.0109E-05

 PERCENT DISCREPANCY =          -0.00     PERCENT DISCREPANCY =          -0.00




         TIME SUMMARY AT END OF TIME STEP    7 IN STRESS PERIOD    6
                    SECONDS     MINUTES      HOURS       DAYS        YEARS
                    -----------------------------------------------------------
   TIME STEP LENGTH 4.84734E+05  8078.9      134.65      5.6103     1.53603E-02
 STRESS PERIOD TIME 2.09672E+06  34945.      582.42      24.268     6.64410E-02
         TOTAL TIME 1.25511E+07 2.09185E+05  3486.4      145.27     0.39772    


end timestep


start timestep kper="6" kstp="8" mode="normal"

 UBDSV1 SAVING     FLOW-JA-FACE ON UNIT   1015 AT TIME STEP      8, STRESS PERIOD      6
 UBDSV06 SAVING              WEL IN MODEL MUMODEL          PACKAGE MUMODEL         CONNECTED TO MODEL MUMODEL          PACKAGE WEL-1            ON UNIT   1015 AT TIME STEP      8, STRESS PERIOD      6
 UBDSV06 SAVING             RCHA IN MODEL MUMODEL          PACKAGE MUMODEL         CONNECTED TO MODEL MUMODEL          PACKAGE RCH-1            ON UNIT   1015 AT TIME STEP      8, STRESS PERIOD      6

 WEL PACKAGE (WEL-1) FLOW RATES   PERIOD      6   STEP        8
 -----------------------------------------------
   NUMBER   CELLID                    RATE      
 -----------------------------------------------
     1      (1,5,5)               0.0000000     
     2      (1,11,5)              0.0000000     
     3      (1,5,5)               0.0000000     
 -----------------------------------------------




 CHD PACKAGE (CHD-FROM-IBOUND) FLOW RATES   PERIOD      6   STEP        8
 -----------------------------------------------
   NUMBER   CELLID                    RATE      
 -----------------------------------------------
     1      (1,1,1)              -2611.3126     
     2      (1,1,2)              -2611.3157     
     3      (1,1,3)              -2611.3155     
     4      (1,1,4)              -2611.3138     
     5      (1,1,5)              -2611.3120     
     6      (1,1,6)              -2611.3104     
     7      (1,1,7)              -2611.3086     
     8      (1,1,8)              -2611.3063     
     9      (1,1,9)              -2611.3039     
     10     (1,21,1)             -2611.3038     
     11     (1,21,2)             -2611.3073     
     12     (1,21,3)             -2611.3103     
     13     (1,21,4)             -2611.3122     
     14     (1,21,5)             -2611.3141     
     15     (1,21,6)             -2611.3164     
     16     (1,21,7)             -2611.3183     
     17     (1,21,8)             -2611.3174     
     18     (1,21,9)             -2611.3119     
 -----------------------------------------------




 HEAD WILL BE SAVED ON UNIT 1016 AT END OF TIME STEP    8, STRESS PERIOD    6


  VOLUME BUDGET FOR ENTIRE MODEL AT END OF TIME STEP    8, STRESS PERIOD   6
  ---------------------------------------------------------------------------------------------------

     CUMULATIVE VOLUME      L**3       RATES FOR THIS TIME STEP      L**3/T          PACKAGE NAME    
     ------------------                 ------------------------                     ----------------

           IN:                                      IN:
           ---                                      ---
              STO-SS =           0.0000                STO-SS =           0.0000     STORAGE                          
              STO-SY =           0.0000                STO-SY =           0.0000     STORAGE                          
                 WEL =           0.0000                   WEL =           0.0000     WEL-1                            
                RCHA =    30822750.0000                  RCHA =       85500.0000     RCH-1                            
                 CHD =           0.0000                   CHD =           0.0000     CHD-FROM-IBOUND                  

            TOTAL IN =    30822750.0000              TOTAL IN =       85500.0000

          OUT:                                     OUT:
          ----                                     ----
              STO-SS =    23126572.6866                STO-SS =       37161.6416     STORAGE                          
              STO-SY =      849754.3320                STO-SY =        1334.7482     STORAGE                          
                 WEL =           0.0000                   WEL =           0.0000     WEL-1                            
                RCHA =           0.0000                  RCHA =           0.0000     RCH-1                            
                 CHD =     6846427.4134                   CHD =       47003.6104     CHD-FROM-IBOUND                  

           TOTAL OUT =    30822754.4319             TOTAL OUT =       85500.0002

            IN - OUT =          -4.4319              IN - OUT =      -1.5269E-04

 PERCENT DISCREPANCY =          -0.00     PERCENT DISCREPANCY =          -0.00




         TIME SUMMARY AT END OF TIME STEP    8 IN STRESS PERIOD    6
                    SECONDS     MINUTES      HOURS       DAYS        YEARS
                    -----------------------------------------------------------
   TIME STEP LENGTH 5.81680E+05  9694.7      161.58      6.7324     1.84323E-02
 STRESS PERIOD TIME 2.67840E+06  44640.      744.00      31.000     8.48734E-02
         TOTAL TIME 1.31328E+07 2.18880E+05  3648.0      152.00     0.41615    


end timestep


start timestep kper="7" kstp="1" mode="normal"


 OUTPUT CONTROL FOR STRESS PERIOD 7 IS REPEATED USING SETTINGS FROM A PREVIOUS STRESS PERIOD.


 STRESS PERIOD 7 IS TRANSIENT


 REUSING WELS FROM LAST STRESS PERIOD

 REUSING CHDS FROM LAST STRESS PERIOD
 UBDSV1 SAVING     FLOW-JA-FACE ON UNIT   1015 AT TIME STEP      1, STRESS PERIOD      7
 UBDSV06 SAVING              WEL IN MODEL MUMODEL          PACKAGE MUMODEL         CONNECTED TO MODEL MUMODEL          PACKAGE WEL-1            ON UNIT   1015 AT TIME STEP      1, STRESS PERIOD      7
 UBDSV06 SAVING             RCHA IN MODEL MUMODEL          PACKAGE MUMODEL         CONNECTED TO MODEL MUMODEL          PACKAGE RCH-1            ON UNIT   1015 AT TIME STEP      1, STRESS PERIOD      7

 WEL PACKAGE (WEL-1) FLOW RATES   PERIOD      7   STEP        1
 -----------------------------------------------
   NUMBER   CELLID                    RATE      
 -----------------------------------------------
     1      (1,5,5)               0.0000000     
     2      (1,11,5)              0.0000000     
     3      (1,5,5)               0.0000000     
 -----------------------------------------------




 CHD PACKAGE (CHD-FROM-IBOUND) FLOW RATES   PERIOD      7   STEP        1
 -----------------------------------------------
   NUMBER   CELLID                    RATE      
 -----------------------------------------------
     1      (1,1,1)              -2610.6469     
     2      (1,1,2)              -2610.6499     
     3      (1,1,3)              -2610.6498     
     4      (1,1,4)              -2610.6480     
     5      (1,1,5)              -2610.6463     
     6      (1,1,6)              -2610.6447     
     7      (1,1,7)              -2610.6429     
     8      (1,1,8)              -2610.6405     
     9      (1,1,9)              -2610.6382     
     10     (1,21,1)             -2610.6381     
     11     (1,21,2)             -2610.6416     
     12     (1,21,3)             -2610.6445     
     13     (1,21,4)             -2610.6464     
     14     (1,21,5)             -2610.6483     
     15     (1,21,6)             -2610.6506     
     16     (1,21,7)             -2610.6526     
     17     (1,21,8)             -2610.6516     
     18     (1,21,9)             -2610.6461     
 -----------------------------------------------




 HEAD WILL BE SAVED ON UNIT 1016 AT END OF TIME STEP    1, STRESS PERIOD    7


  VOLUME BUDGET FOR ENTIRE MODEL AT END OF TIME STEP    1, STRESS PERIOD   7
  ---------------------------------------------------------------------------------------------------

     CUMULATIVE VOLUME      L**3       RATES FOR THIS TIME STEP      L**3/T          PACKAGE NAME    
     ------------------                 ------------------------                     ----------------

           IN:                                      IN:
           ---                                      ---
              STO-SS =        7387.3791                STO-SS =        4062.8331     STORAGE                          
              STO-SY =         325.0070                STO-SY =         178.7439     STORAGE                          
                 WEL =           0.0000                   WEL =           0.0000     WEL-1                            
                RCHA =    30900481.5842                  RCHA =       42750.0000     RCH-1                            
                 CHD =           0.0000                   CHD =           0.0000     CHD-FROM-IBOUND                  

            TOTAL IN =    30908193.9703              TOTAL IN =       46991.5771

          OUT:                                     OUT:
          ----                                     ----
              STO-SS =    23126572.6866                STO-SS =           0.0000     STORAGE                          
              STO-SY =      849754.3320                STO-SY =           0.0000     STORAGE                          
                 WEL =           0.0000                   WEL =           0.0000     WEL-1                            
                RCHA =           0.0000                  RCHA =           0.0000     RCH-1                            
                 CHD =     6931871.4743                   CHD =       46991.6269     CHD-FROM-IBOUND                  

           TOTAL OUT =    30908198.4929             TOTAL OUT =       46991.6269

            IN - OUT =          -4.5226              IN - OUT =      -4.9869E-02

 PERCENT DISCREPANCY =          -0.00     PERCENT DISCREPANCY =          -0.00




         TIME SUMMARY AT END OF TIME STEP    1 IN STRESS PERIOD    7
                    SECONDS     MINUTES      HOURS       DAYS        YEARS
                    -----------------------------------------------------------
   TIME STEP LENGTH 1.57100E+05  2618.3      43.639      1.8183     4.97819E-03
 STRESS PERIOD TIME 1.57100E+05  2618.3      43.639      1.8183     4.97819E-03
         TOTAL TIME 1.32899E+07 2.21498E+05  3691.6      153.82     0.42113    


end timestep


start timestep kper="7" kstp="2" mode="normal"

 UBDSV1 SAVING     FLOW-JA-FACE ON UNIT   1015 AT TIME STEP      2, STRESS PERIOD      7
 UBDSV06 SAVING              WEL IN MODEL MUMODEL          PACKAGE MUMODEL         CONNECTED TO MODEL MUMODEL          PACKAGE WEL-1            ON UNIT   1015 AT TIME STEP      2, STRESS PERIOD      7
 UBDSV06 SAVING             RCHA IN MODEL MUMODEL          PACKAGE MUMODEL         CONNECTED TO MODEL MUMODEL          PACKAGE RCH-1            ON UNIT   1015 AT TIME STEP      2, STRESS PERIOD      7

 WEL PACKAGE (WEL-1) FLOW RATES   PERIOD      7   STEP        2
 -----------------------------------------------
   NUMBER   CELLID                    RATE      
 -----------------------------------------------
     1      (1,5,5)               0.0000000     
     2      (1,11,5)              0.0000000     
     3      (1,5,5)               0.0000000     
 -----------------------------------------------




 CHD PACKAGE (CHD-FROM-IBOUND) FLOW RATES   PERIOD      7   STEP        2
 -----------------------------------------------
   NUMBER   CELLID                    RATE      
 -----------------------------------------------
     1      (1,1,1)              -2609.8196     
     2      (1,1,2)              -2609.8226     
     3      (1,1,3)              -2609.8224     
     4      (1,1,4)              -2609.8207     
     5      (1,1,5)              -2609.8189     
     6      (1,1,6)              -2609.8174     
     7      (1,1,7)              -2609.8156     
     8      (1,1,8)              -2609.8132     
     9      (1,1,9)              -2609.8109     
     10     (1,21,1)             -2609.8108     
     11     (1,21,2)             -2609.8143     
     12     (1,21,3)             -2609.8172     
     13     (1,21,4)             -2609.8191     
     14     (1,21,5)             -2609.8210     
     15     (1,21,6)             -2609.8233     
     16     (1,21,7)             -2609.8252     
     17     (1,21,8)             -2609.8242     
     18     (1,21,9)             -2609.8188     
 -----------------------------------------------




 HEAD WILL BE SAVED ON UNIT 1016 AT END OF TIME STEP    2, STRESS PERIOD    7


  VOLUME BUDGET FOR ENTIRE MODEL AT END OF TIME STEP    2, STRESS PERIOD   7
  ---------------------------------------------------------------------------------------------------

     CUMULATIVE VOLUME      L**3       RATES FOR THIS TIME STEP      L**3/T          PACKAGE NAME    
     ------------------                 ------------------------                     ----------------

           IN:                                      IN:
           ---                                      ---
              STO-SS =       16221.1949                STO-SS =        4048.6077     STORAGE                          
              STO-SY =         713.5414                STO-SY =         178.0684     STORAGE                          
                 WEL =           0.0000                   WEL =           0.0000     WEL-1                            
                RCHA =    30993759.4853                  RCHA =       42750.0000     RCH-1                            
                 CHD =           0.0000                   CHD =           0.0000     CHD-FROM-IBOUND                  

            TOTAL IN =    31010694.2217              TOTAL IN =       46976.6761

          OUT:                                     OUT:
          ----                                     ----
              STO-SS =    23126572.6866                STO-SS =           0.0000     STORAGE                          
              STO-SY =      849754.3320                STO-SY =           0.0000     STORAGE                          
                 WEL =           0.0000                   WEL =           0.0000     WEL-1                            
                RCHA =           0.0000                  RCHA =           0.0000     RCH-1                            
                 CHD =     7034371.8544                   CHD =       46976.7351     CHD-FROM-IBOUND                  

           TOTAL OUT =    31010698.8730             TOTAL OUT =       46976.7351

            IN - OUT =          -4.6513              IN - OUT =      -5.9002E-02

 PERCENT DISCREPANCY =          -0.00     PERCENT DISCREPANCY =          -0.00




         TIME SUMMARY AT END OF TIME STEP    2 IN STRESS PERIOD    7
                    SECONDS     MINUTES      HOURS       DAYS        YEARS
                    -----------------------------------------------------------
   TIME STEP LENGTH 1.88520E+05  3142.0      52.367      2.1819     5.97382E-03
 STRESS PERIOD TIME 3.45619E+05  5760.3      96.005      4.0002     1.09520E-02
         TOTAL TIME 1.34784E+07 2.24640E+05  3744.0      156.00     0.42711    


end timestep


start timestep kper="7" kstp="3" mode="normal"

 UBDSV1 SAVING     FLOW-JA-FACE ON UNIT   1015 AT TIME STEP      3, STRESS PERIOD      7
 UBDSV06 SAVING              WEL IN MODEL MUMODEL          PACKAGE MUMODEL         CONNECTED TO MODEL MUMODEL          PACKAGE WEL-1            ON UNIT   1015 AT TIME STEP      3, STRESS PERIOD      7
 UBDSV06 SAVING             RCHA IN MODEL MUMODEL          PACKAGE MUMODEL         CONNECTED TO MODEL MUMODEL          PACKAGE RCH-1            ON UNIT   1015 AT TIME STEP      3, STRESS PERIOD      7

 WEL PACKAGE (WEL-1) FLOW RATES   PERIOD      7   STEP        3
 -----------------------------------------------
   NUMBER   CELLID                    RATE      
 -----------------------------------------------
     1      (1,5,5)               0.0000000     
     2      (1,11,5)              0.0000000     
     3      (1,5,5)               0.0000000     
 -----------------------------------------------




 CHD PACKAGE (CHD-FROM-IBOUND) FLOW RATES   PERIOD      7   STEP        3
 -----------------------------------------------
   NUMBER   CELLID                    RATE      
 -----------------------------------------------
     1      (1,1,1)              -2608.8357     
     2      (1,1,2)              -2608.8387     
     3      (1,1,3)              -2608.8386     
     4      (1,1,4)              -2608.8369     
     5      (1,1,5)              -2608.8351     
     6      (1,1,6)              -2608.8336     
     7      (1,1,7)              -2608.8318     
     8      (1,1,8)              -2608.8294     
     9      (1,1,9)              -2608.8271     
     10     (1,21,1)             -2608.8270     
     11     (1,21,2)             -2608.8305     
     12     (1,21,3)             -2608.8334     
     13     (1,21,4)             -2608.8353     
     14     (1,21,5)             -2608.8372     
     15     (1,21,6)             -2608.8395     
     16     (1,21,7)             -2608.8413     
     17     (1,21,8)             -2608.8404     
     18     (1,21,9)             -2608.8350     
 -----------------------------------------------




 HEAD WILL BE SAVED ON UNIT 1016 AT END OF TIME STEP    3, STRESS PERIOD    7


  VOLUME BUDGET FOR ENTIRE MODEL AT END OF TIME STEP    3, STRESS PERIOD   7
  ---------------------------------------------------------------------------------------------------

     CUMULATIVE VOLUME      L**3       RATES FOR THIS TIME STEP      L**3/T          PACKAGE NAME    
     ------------------                 ------------------------                     ----------------

           IN:                                      IN:
           ---                                      ---
              STO-SS =       26777.4822                STO-SS =        4031.6917     STORAGE                          
              STO-SY =        1177.6796                STO-SY =         177.2652     STORAGE                          
                 WEL =           0.0000                   WEL =           0.0000     WEL-1                            
                RCHA =    31105692.9666                  RCHA =       42750.0000     RCH-1                            
                 CHD =           0.0000                   CHD =           0.0000     CHD-FROM-IBOUND                  

            TOTAL IN =    31133648.1285              TOTAL IN =       46958.9568

          OUT:                                     OUT:
          ----                                     ----
              STO-SS =    23126572.6866                STO-SS =           0.0000     STORAGE                          
              STO-SY =      849754.3320                STO-SY =           0.0000     STORAGE                          
                 WEL =           0.0000                   WEL =           0.0000     WEL-1                            
                RCHA =           0.0000                  RCHA =           0.0000     RCH-1                            
                 CHD =     7157325.9435                   CHD =       46959.0264     CHD-FROM-IBOUND                  

           TOTAL OUT =    31133652.9621             TOTAL OUT =       46959.0264

            IN - OUT =          -4.8336              IN - OUT =      -6.9612E-02

 PERCENT DISCREPANCY =          -0.00     PERCENT DISCREPANCY =          -0.00




         TIME SUMMARY AT END OF TIME STEP    3 IN STRESS PERIOD    7
                    SECONDS     MINUTES      HOURS       DAYS        YEARS
                    -----------------------------------------------------------
   TIME STEP LENGTH 2.26223E+05  3770.4      62.840      2.6183     7.16859E-03
 STRESS PERIOD TIME 5.71843E+05  9530.7      158.85      6.6185     1.81206E-02
         TOTAL TIME 1.37046E+07 2.28411E+05  3806.8      158.62     0.43427    


end timestep


start timestep kper="7" kstp="4" mode="normal"

 UBDSV1 SAVING     FLOW-JA-FACE ON UNIT   1015 AT TIME STEP      4, STRESS PERIOD      7
 UBDSV06 SAVING              WEL IN MODEL MUMODEL          PACKAGE MUMODEL         CONNECTED TO MODEL MUMODEL          PACKAGE WEL-1            ON UNIT   1015 AT TIME STEP      4, STRESS PERIOD      7
 UBDSV06 SAVING             RCHA IN MODEL MUMODEL          PACKAGE MUMODEL         CONNECTED TO MODEL MUMODEL          PACKAGE RCH-1            ON UNIT   1015 AT TIME STEP      4, STRESS PERIOD      7

 WEL PACKAGE (WEL-1) FLOW RATES   PERIOD      7   STEP        4
 -----------------------------------------------
   NUMBER   CELLID                    RATE      
 -----------------------------------------------
     1      (1,5,5)               0.0000000     
     2      (1,11,5)              0.0000000     
     3      (1,5,5)               0.0000000     
 -----------------------------------------------




 CHD PACKAGE (CHD-FROM-IBOUND) FLOW RATES   PERIOD      7   STEP        4
 -----------------------------------------------
   NUMBER   CELLID                    RATE      
 -----------------------------------------------
     1      (1,1,1)              -2607.6101     
     2      (1,1,2)              -2607.6130     
     3      (1,1,3)              -2607.6129     
     4      (1,1,4)              -2607.6112     
     5      (1,1,5)              -2607.6094     
     6      (1,1,6)              -2607.6079     
     7      (1,1,7)              -2607.6061     
     8      (1,1,8)              -2607.6038     
     9      (1,1,9)              -2607.6014     
     10     (1,21,1)             -2607.6014     
     11     (1,21,2)             -2607.6048     
     12     (1,21,3)             -2607.6077     
     13     (1,21,4)             -2607.6096     
     14     (1,21,5)             -2607.6115     
     15     (1,21,6)             -2607.6138     
     16     (1,21,7)             -2607.6156     
     17     (1,21,8)             -2607.6146     
     18     (1,21,9)             -2607.6093     
 -----------------------------------------------




 HEAD WILL BE SAVED ON UNIT 1016 AT END OF TIME STEP    4, STRESS PERIOD    7


  VOLUME BUDGET FOR ENTIRE MODEL AT END OF TIME STEP    4, STRESS PERIOD   7
  ---------------------------------------------------------------------------------------------------

     CUMULATIVE VOLUME      L**3       RATES FOR THIS TIME STEP      L**3/T          PACKAGE NAME    
     ------------------                 ------------------------                     ----------------

           IN:                                      IN:
           ---                                      ---
              STO-SS =       39379.0390                STO-SS =        4010.6897     STORAGE                          
              STO-SY =        1731.5326                STO-SY =         176.2744     STORAGE                          
                 WEL =           0.0000                   WEL =           0.0000     WEL-1                            
                RCHA =    31240013.1442                  RCHA =       42750.0000     RCH-1                            
                 CHD =           0.0000                   CHD =           0.0000     CHD-FROM-IBOUND                  

            TOTAL IN =    31281123.7157              TOTAL IN =       46936.9641

          OUT:                                     OUT:
          ----                                     ----
              STO-SS =    23126572.6866                STO-SS =           0.0000     STORAGE                          
              STO-SY =      849754.3320                STO-SY =           0.0000     STORAGE                          
                 WEL =           0.0000                   WEL =           0.0000     WEL-1                            
                RCHA =           0.0000                  RCHA =           0.0000     RCH-1                            
                 CHD =     7304801.5306                   CHD =       46936.9641     CHD-FROM-IBOUND                  

           TOTAL OUT =    31281128.5491             TOTAL OUT =       46936.9641

            IN - OUT =          -4.8334              IN - OUT =       5.9055E-05

 PERCENT DISCREPANCY =          -0.00     PERCENT DISCREPANCY =           0.00




         TIME SUMMARY AT END OF TIME STEP    4 IN STRESS PERIOD    7
                    SECONDS     MINUTES      HOURS       DAYS        YEARS
                    -----------------------------------------------------------
   TIME STEP LENGTH 2.71468E+05  4524.5      75.408      3.1420     8.60231E-03
 STRESS PERIOD TIME 8.43311E+05  14055.      234.25      9.7605     2.67229E-02
         TOTAL TIME 1.39761E+07 2.32935E+05  3882.3      161.76     0.44288    


end timestep


start timestep kper="7" kstp="5" mode="normal"

 UBDSV1 SAVING     FLOW-JA-FACE ON UNIT   1015 AT TIME STEP      5, STRESS PERIOD      7
 UBDSV06 SAVING              WEL IN MODEL MUMODEL          PACKAGE MUMODEL         CONNECTED TO MODEL MUMODEL          PACKAGE WEL-1            ON UNIT   1015 AT TIME STEP      5, STRESS PERIOD      7
 UBDSV06 SAVING             RCHA IN MODEL MUMODEL          PACKAGE MUMODEL         CONNECTED TO MODEL MUMODEL          PACKAGE RCH-1            ON UNIT   1015 AT TIME STEP      5, STRESS PERIOD      7

 WEL PACKAGE (WEL-1) FLOW RATES   PERIOD      7   STEP        5
 -----------------------------------------------
   NUMBER   CELLID                    RATE      
 -----------------------------------------------
     1      (1,5,5)               0.0000000     
     2      (1,11,5)              0.0000000     
     3      (1,5,5)               0.0000000     
 -----------------------------------------------




 CHD PACKAGE (CHD-FROM-IBOUND) FLOW RATES   PERIOD      7   STEP        5
 -----------------------------------------------
   NUMBER   CELLID                    RATE      
 -----------------------------------------------
     1      (1,1,1)              -2606.2160     
     2      (1,1,2)              -2606.2189     
     3      (1,1,3)              -2606.2188     
     4      (1,1,4)              -2606.2171     
     5      (1,1,5)              -2606.2154     
     6      (1,1,6)              -2606.2139     
     7      (1,1,7)              -2606.2121     
     8      (1,1,8)              -2606.2097     
     9      (1,1,9)              -2606.2074     
     10     (1,21,1)             -2606.2074     
     11     (1,21,2)             -2606.2108     
     12     (1,21,3)             -2606.2137     
     13     (1,21,4)             -2606.2156     
     14     (1,21,5)             -2606.2174     
     15     (1,21,6)             -2606.2197     
     16     (1,21,7)             -2606.2215     
     17     (1,21,8)             -2606.2205     
     18     (1,21,9)             -2606.2153     
 -----------------------------------------------




 HEAD WILL BE SAVED ON UNIT 1016 AT END OF TIME STEP    5, STRESS PERIOD    7


  VOLUME BUDGET FOR ENTIRE MODEL AT END OF TIME STEP    5, STRESS PERIOD   7
  ---------------------------------------------------------------------------------------------------

     CUMULATIVE VOLUME      L**3       RATES FOR THIS TIME STEP      L**3/T          PACKAGE NAME    
     ------------------                 ------------------------                     ----------------

           IN:                                      IN:
           ---                                      ---
              STO-SS =       54410.5824                STO-SS =        3986.7334     STORAGE                          
              STO-SY =        2391.8719                STO-SY =         175.1382     STORAGE                          
                 WEL =           0.0000                   WEL =           0.0000     WEL-1                            
                RCHA =    31401197.3573                  RCHA =       42750.0000     RCH-1                            
                 CHD =           0.0000                   CHD =           0.0000     CHD-FROM-IBOUND                  

            TOTAL IN =    31457999.8115              TOTAL IN =       46911.8715

          OUT:                                     OUT:
          ----                                     ----
              STO-SS =    23126572.6866                STO-SS =           0.0000     STORAGE                          
              STO-SY =      849754.3320                STO-SY =           0.0000     STORAGE                          
                 WEL =           0.0000                   WEL =           0.0000     WEL-1                            
                RCHA =           0.0000                  RCHA =           0.0000     RCH-1                            
                 CHD =     7481677.6260                   CHD =       46911.8714     CHD-FROM-IBOUND                  

           TOTAL OUT =    31458004.6445             TOTAL OUT =       46911.8714

            IN - OUT =          -4.8330              IN - OUT =       1.0246E-04

 PERCENT DISCREPANCY =          -0.00     PERCENT DISCREPANCY =           0.00




         TIME SUMMARY AT END OF TIME STEP    5 IN STRESS PERIOD    7
                    SECONDS     MINUTES      HOURS       DAYS        YEARS
                    -----------------------------------------------------------
   TIME STEP LENGTH 3.25762E+05  5429.4      90.489      3.7704     1.03228E-02
 STRESS PERIOD TIME 1.16907E+06  19485.      324.74      13.531     3.70457E-02
         TOTAL TIME 1.43019E+07 2.38365E+05  3972.7      165.53     0.45320    


end timestep


start timestep kper="7" kstp="6" mode="normal"

 UBDSV1 SAVING     FLOW-JA-FACE ON UNIT   1015 AT TIME STEP      6, STRESS PERIOD      7
 UBDSV06 SAVING              WEL IN MODEL MUMODEL          PACKAGE MUMODEL         CONNECTED TO MODEL MUMODEL          PACKAGE WEL-1            ON UNIT   1015 AT TIME STEP      6, STRESS PERIOD      7
 UBDSV06 SAVING             RCHA IN MODEL MUMODEL          PACKAGE MUMODEL         CONNECTED TO MODEL MUMODEL          PACKAGE RCH-1            ON UNIT   1015 AT TIME STEP      6, STRESS PERIOD      7

 WEL PACKAGE (WEL-1) FLOW RATES   PERIOD      7   STEP        6
 -----------------------------------------------
   NUMBER   CELLID                    RATE      
 -----------------------------------------------
     1      (1,5,5)               0.0000000     
     2      (1,11,5)              0.0000000     
     3      (1,5,5)               0.0000000     
 -----------------------------------------------




 CHD PACKAGE (CHD-FROM-IBOUND) FLOW RATES   PERIOD      7   STEP        6
 -----------------------------------------------
   NUMBER   CELLID                    RATE      
 -----------------------------------------------
     1      (1,1,1)              -2604.5690     
     2      (1,1,2)              -2604.5719     
     3      (1,1,3)              -2604.5718     
     4      (1,1,4)              -2604.5701     
     5      (1,1,5)              -2604.5684     
     6      (1,1,6)              -2604.5669     
     7      (1,1,7)              -2604.5651     
     8      (1,1,8)              -2604.5628     
     9      (1,1,9)              -2604.5605     
     10     (1,21,1)             -2604.5605     
     11     (1,21,2)             -2604.5639     
     12     (1,21,3)             -2604.5667     
     13     (1,21,4)             -2604.5686     
     14     (1,21,5)             -2604.5704     
     15     (1,21,6)             -2604.5727     
     16     (1,21,7)             -2604.5745     
     17     (1,21,8)             -2604.5734     
     18     (1,21,9)             -2604.5683     
 -----------------------------------------------




 HEAD WILL BE SAVED ON UNIT 1016 AT END OF TIME STEP    6, STRESS PERIOD    7


  VOLUME BUDGET FOR ENTIRE MODEL AT END OF TIME STEP    6, STRESS PERIOD   7
  ---------------------------------------------------------------------------------------------------

     CUMULATIVE VOLUME      L**3       RATES FOR THIS TIME STEP      L**3/T          PACKAGE NAME    
     ------------------                 ------------------------                     ----------------

           IN:                                      IN:
           ---                                      ---
              STO-SS =       72320.3761                STO-SS =        3958.4299     STORAGE                          
              STO-SY =        3178.2053                STO-SY =         173.7957     STORAGE                          
                 WEL =           0.0000                   WEL =           0.0000     WEL-1                            
                RCHA =    31594618.4130                  RCHA =       42750.0000     RCH-1                            
                 CHD =           0.0000                   CHD =           0.0000     CHD-FROM-IBOUND                  

            TOTAL IN =    31670116.9944              TOTAL IN =       46882.2256

          OUT:                                     OUT:
          ----                                     ----
              STO-SS =    23126572.6866                STO-SS =           0.0000     STORAGE                          
              STO-SY =      849754.3320                STO-SY =           0.0000     STORAGE                          
                 WEL =           0.0000                   WEL =           0.0000     WEL-1                            
                RCHA =           0.0000                  RCHA =           0.0000     RCH-1                            
                 CHD =     7693794.8081                   CHD =       46882.2254     CHD-FROM-IBOUND                  

           TOTAL OUT =    31670121.8266             TOTAL OUT =       46882.2254

            IN - OUT =          -4.8323              IN - OUT =       1.6729E-04

 PERCENT DISCREPANCY =          -0.00     PERCENT DISCREPANCY =           0.00




         TIME SUMMARY AT END OF TIME STEP    6 IN STRESS PERIOD    7
                    SECONDS     MINUTES      HOURS       DAYS        YEARS
                    -----------------------------------------------------------
   TIME STEP LENGTH 3.90914E+05  6515.2      108.59      4.5245     1.23873E-02
 STRESS PERIOD TIME 1.55999E+06  26000.      433.33      18.055     4.94330E-02
         TOTAL TIME 1.46928E+07 2.44880E+05  4081.3      170.06     0.46559    


end timestep


start timestep kper="7" kstp="7" mode="normal"

 UBDSV1 SAVING     FLOW-JA-FACE ON UNIT   1015 AT TIME STEP      7, STRESS PERIOD      7
 UBDSV06 SAVING              WEL IN MODEL MUMODEL          PACKAGE MUMODEL         CONNECTED TO MODEL MUMODEL          PACKAGE WEL-1            ON UNIT   1015 AT TIME STEP      7, STRESS PERIOD      7
 UBDSV06 SAVING             RCHA IN MODEL MUMODEL          PACKAGE MUMODEL         CONNECTED TO MODEL MUMODEL          PACKAGE RCH-1            ON UNIT   1015 AT TIME STEP      7, STRESS PERIOD      7

 WEL PACKAGE (WEL-1) FLOW RATES   PERIOD      7   STEP        7
 -----------------------------------------------
   NUMBER   CELLID                    RATE      
 -----------------------------------------------
     1      (1,5,5)               0.0000000     
     2      (1,11,5)              0.0000000     
     3      (1,5,5)               0.0000000     
 -----------------------------------------------




 CHD PACKAGE (CHD-FROM-IBOUND) FLOW RATES   PERIOD      7   STEP        7
 -----------------------------------------------
   NUMBER   CELLID                    RATE      
 -----------------------------------------------
     1      (1,1,1)              -2602.6290     
     2      (1,1,2)              -2602.6317     
     3      (1,1,3)              -2602.6317     
     4      (1,1,4)              -2602.6301     
     5      (1,1,5)              -2602.6283     
     6      (1,1,6)              -2602.6268     
     7      (1,1,7)              -2602.6251     
     8      (1,1,8)              -2602.6227     
     9      (1,1,9)              -2602.6205     
     10     (1,21,1)             -2602.6205     
     11     (1,21,2)             -2602.6238     
     12     (1,21,3)             -2602.6267     
     13     (1,21,4)             -2602.6285     
     14     (1,21,5)             -2602.6304     
     15     (1,21,6)             -2602.6326     
     16     (1,21,7)             -2602.6343     
     17     (1,21,8)             -2602.6333     
     18     (1,21,9)             -2602.6282     
 -----------------------------------------------




 HEAD WILL BE SAVED ON UNIT 1016 AT END OF TIME STEP    7, STRESS PERIOD    7


  VOLUME BUDGET FOR ENTIRE MODEL AT END OF TIME STEP    7, STRESS PERIOD   7
  ---------------------------------------------------------------------------------------------------

     CUMULATIVE VOLUME      L**3       RATES FOR THIS TIME STEP      L**3/T          PACKAGE NAME    
     ------------------                 ------------------------                     ----------------

           IN:                                      IN:
           ---                                      ---
              STO-SS =       93631.1140                STO-SS =        3925.0899     STORAGE                          
              STO-SY =        4113.2204                STO-SY =         172.2145     STORAGE                          
                 WEL =           0.0000                   WEL =           0.0000     WEL-1                            
                RCHA =    31826723.6798                  RCHA =       42750.0000     RCH-1                            
                 CHD =           0.0000                   CHD =           0.0000     CHD-FROM-IBOUND                  

            TOTAL IN =    31924468.0141              TOTAL IN =       46847.3044

          OUT:                                     OUT:
          ----                                     ----
              STO-SS =    23126572.6866                STO-SS =           0.0000     STORAGE                          
              STO-SY =      849754.3320                STO-SY =           0.0000     STORAGE                          
                 WEL =           0.0000                   WEL =           0.0000     WEL-1                            
                RCHA =           0.0000                  RCHA =           0.0000     RCH-1                            
                 CHD =     7948145.8263                   CHD =       46847.3042     CHD-FROM-IBOUND                  

           TOTAL OUT =    31924472.8449             TOTAL OUT =       46847.3042

            IN - OUT =          -4.8307              IN - OUT =       2.8213E-04

 PERCENT DISCREPANCY =          -0.00     PERCENT DISCREPANCY =           0.00




         TIME SUMMARY AT END OF TIME STEP    7 IN STRESS PERIOD    7
                    SECONDS     MINUTES      HOURS       DAYS        YEARS
                    -----------------------------------------------------------
   TIME STEP LENGTH 4.69097E+05  7818.3      130.30      5.4294     1.48648E-02
 STRESS PERIOD TIME 2.02908E+06  33818.      563.63      23.485     6.42978E-02
         TOTAL TIME 1.51619E+07 2.52698E+05  4211.6      175.48     0.48045    


end timestep


start timestep kper="7" kstp="8" mode="normal"

 UBDSV1 SAVING     FLOW-JA-FACE ON UNIT   1015 AT TIME STEP      8, STRESS PERIOD      7
 UBDSV06 SAVING              WEL IN MODEL MUMODEL          PACKAGE MUMODEL         CONNECTED TO MODEL MUMODEL          PACKAGE WEL-1            ON UNIT   1015 AT TIME STEP      8, STRESS PERIOD      7
 UBDSV06 SAVING             RCHA IN MODEL MUMODEL          PACKAGE MUMODEL         CONNECTED TO MODEL MUMODEL          PACKAGE RCH-1            ON UNIT   1015 AT TIME STEP      8, STRESS PERIOD      7

 WEL PACKAGE (WEL-1) FLOW RATES   PERIOD      7   STEP        8
 -----------------------------------------------
   NUMBER   CELLID                    RATE      
 -----------------------------------------------
     1      (1,5,5)               0.0000000     
     2      (1,11,5)              0.0000000     
     3      (1,5,5)               0.0000000     
 -----------------------------------------------




 CHD PACKAGE (CHD-FROM-IBOUND) FLOW RATES   PERIOD      7   STEP        8
 -----------------------------------------------
   NUMBER   CELLID                    RATE      
 -----------------------------------------------
     1      (1,1,1)              -2600.3517     
     2      (1,1,2)              -2600.3544     
     3      (1,1,3)              -2600.3544     
     4      (1,1,4)              -2600.3528     
     5      (1,1,5)              -2600.3511     
     6      (1,1,6)              -2600.3496     
     7      (1,1,7)              -2600.3478     
     8      (1,1,8)              -2600.3455     
     9      (1,1,9)              -2600.3433     
     10     (1,21,1)             -2600.3434     
     11     (1,21,2)             -2600.3467     
     12     (1,21,3)             -2600.3494     
     13     (1,21,4)             -2600.3513     
     14     (1,21,5)             -2600.3531     
     15     (1,21,6)             -2600.3553     
     16     (1,21,7)             -2600.3570     
     17     (1,21,8)             -2600.3559     
     18     (1,21,9)             -2600.3510     
 -----------------------------------------------




 HEAD WILL BE SAVED ON UNIT 1016 AT END OF TIME STEP    8, STRESS PERIOD    7


  VOLUME BUDGET FOR ENTIRE MODEL AT END OF TIME STEP    8, STRESS PERIOD   7
  ---------------------------------------------------------------------------------------------------

     CUMULATIVE VOLUME      L**3       RATES FOR THIS TIME STEP      L**3/T          PACKAGE NAME    
     ------------------                 ------------------------                     ----------------

           IN:                                      IN:
           ---                                      ---
              STO-SS =      118949.0297                STO-SS =        3885.9555     STORAGE                          
              STO-SY =        5223.1466                STO-SY =         170.3586     STORAGE                          
                 WEL =           0.0000                   WEL =           0.0000     WEL-1                            
                RCHA =    32105250.0000                  RCHA =       42750.0000     RCH-1                            
                 CHD =           0.0000                   CHD =           0.0000     CHD-FROM-IBOUND                  

            TOTAL IN =    32229422.1762              TOTAL IN =       46806.3141

          OUT:                                     OUT:
          ----                                     ----
              STO-SS =    23126572.6866                STO-SS =           0.0000     STORAGE                          
              STO-SY =      849754.3320                STO-SY =           0.0000     STORAGE                          
                 WEL =           0.0000                   WEL =           0.0000     WEL-1                            
                RCHA =           0.0000                  RCHA =           0.0000     RCH-1                            
                 CHD =     8253099.9854                   CHD =       46806.3136     CHD-FROM-IBOUND                  

           TOTAL OUT =    32229427.0039             TOTAL OUT =       46806.3136

            IN - OUT =          -4.8277              IN - OUT =       4.6817E-04

 PERCENT DISCREPANCY =          -0.00     PERCENT DISCREPANCY =           0.00




         TIME SUMMARY AT END OF TIME STEP    8 IN STRESS PERIOD    7
                    SECONDS     MINUTES      HOURS       DAYS        YEARS
                    -----------------------------------------------------------
   TIME STEP LENGTH 5.62916E+05  9381.9      156.37      6.5152     1.78377E-02
 STRESS PERIOD TIME 2.59200E+06  43200.      720.00      30.000     8.21355E-02
         TOTAL TIME 1.57248E+07 2.62080E+05  4368.0      182.00     0.49829    


end timestep


start timestep kper="8" kstp="1" mode="normal"


 OUTPUT CONTROL FOR STRESS PERIOD 8 IS REPEATED USING SETTINGS FROM A PREVIOUS STRESS PERIOD.


 STRESS PERIOD 8 IS TRANSIENT


 REUSING WELS FROM LAST STRESS PERIOD

 REUSING CHDS FROM LAST STRESS PERIOD
 UBDSV1 SAVING     FLOW-JA-FACE ON UNIT   1015 AT TIME STEP      1, STRESS PERIOD      8
 UBDSV06 SAVING              WEL IN MODEL MUMODEL          PACKAGE MUMODEL         CONNECTED TO MODEL MUMODEL          PACKAGE WEL-1            ON UNIT   1015 AT TIME STEP      1, STRESS PERIOD      8
 UBDSV06 SAVING             RCHA IN MODEL MUMODEL          PACKAGE MUMODEL         CONNECTED TO MODEL MUMODEL          PACKAGE RCH-1            ON UNIT   1015 AT TIME STEP      1, STRESS PERIOD      8

 WEL PACKAGE (WEL-1) FLOW RATES   PERIOD      8   STEP        1
 -----------------------------------------------
   NUMBER   CELLID                    RATE      
 -----------------------------------------------
     1      (1,5,5)               0.0000000     
     2      (1,11,5)              0.0000000     
     3      (1,5,5)               0.0000000     
 -----------------------------------------------




 CHD PACKAGE (CHD-FROM-IBOUND) FLOW RATES   PERIOD      8   STEP        1
 -----------------------------------------------
   NUMBER   CELLID                    RATE      
 -----------------------------------------------
     1      (1,1,1)              -2598.9001     
     2      (1,1,2)              -2598.9028     
     3      (1,1,3)              -2598.9027     
     4      (1,1,4)              -2598.9012     
     5      (1,1,5)              -2598.8995     
     6      (1,1,6)              -2598.8980     
     7      (1,1,7)              -2598.8962     
     8      (1,1,8)              -2598.8939     
     9      (1,1,9)              -2598.8917     
     10     (1,21,1)             -2598.8918     
     11     (1,21,2)             -2598.8950     
     12     (1,21,3)             -2598.8978     
     13     (1,21,4)             -2598.8997     
     14     (1,21,5)             -2598.9015     
     15     (1,21,6)             -2598.9037     
     16     (1,21,7)             -2598.9053     
     17     (1,21,8)             -2598.9042     
     18     (1,21,9)             -2598.8994     
 -----------------------------------------------




 HEAD WILL BE SAVED ON UNIT 1016 AT END OF TIME STEP    1, STRESS PERIOD    8


  VOLUME BUDGET FOR ENTIRE MODEL AT END OF TIME STEP    1, STRESS PERIOD   8
  ---------------------------------------------------------------------------------------------------

     CUMULATIVE VOLUME      L**3       RATES FOR THIS TIME STEP      L**3/T          PACKAGE NAME    
     ------------------                 ------------------------                     ----------------

           IN:                                      IN:
           ---                                      ---
              STO-SS =      195933.3847                STO-SS =       40973.2710     STORAGE                          
              STO-SY =        8101.4465                STO-SY =        1531.9134     STORAGE                          
                 WEL =           0.0000                   WEL =           0.0000     WEL-1                            
                RCHA =    32113282.2637                  RCHA =        4275.0000     RCH-1                            
                 CHD =           0.0000                   CHD =           0.0000     CHD-FROM-IBOUND                  

            TOTAL IN =    32317317.0949              TOTAL IN =       46780.1844

          OUT:                                     OUT:
          ----                                     ----
              STO-SS =    23126572.6866                STO-SS =           0.0000     STORAGE                          
              STO-SY =      849754.3320                STO-SY =           0.0000     STORAGE                          
                 WEL =           0.0000                   WEL =           0.0000     WEL-1                            
                RCHA =           0.0000                  RCHA =           0.0000     RCH-1                            
                 CHD =     8340994.9040                   CHD =       46780.1844     CHD-FROM-IBOUND                  

           TOTAL OUT =    32317321.9225             TOTAL OUT =       46780.1844

            IN - OUT =          -4.8277              IN - OUT =       1.8931E-05

 PERCENT DISCREPANCY =          -0.00     PERCENT DISCREPANCY =           0.00




         TIME SUMMARY AT END OF TIME STEP    1 IN STRESS PERIOD    8
                    SECONDS     MINUTES      HOURS       DAYS        YEARS
                    -----------------------------------------------------------
   TIME STEP LENGTH 1.62336E+05  2705.6      45.093      1.8789     5.14413E-03
 STRESS PERIOD TIME 1.62336E+05  2705.6      45.093      1.8789     5.14413E-03
         TOTAL TIME 1.58871E+07 2.64786E+05  4413.1      183.88     0.50343    


end timestep


start timestep kper="8" kstp="2" mode="normal"

 UBDSV1 SAVING     FLOW-JA-FACE ON UNIT   1015 AT TIME STEP      2, STRESS PERIOD      8
 UBDSV06 SAVING              WEL IN MODEL MUMODEL          PACKAGE MUMODEL         CONNECTED TO MODEL MUMODEL          PACKAGE WEL-1            ON UNIT   1015 AT TIME STEP      2, STRESS PERIOD      8
 UBDSV06 SAVING             RCHA IN MODEL MUMODEL          PACKAGE MUMODEL         CONNECTED TO MODEL MUMODEL          PACKAGE RCH-1            ON UNIT   1015 AT TIME STEP      2, STRESS PERIOD      8

 WEL PACKAGE (WEL-1) FLOW RATES   PERIOD      8   STEP        2
 -----------------------------------------------
   NUMBER   CELLID                    RATE      
 -----------------------------------------------
     1      (1,5,5)               0.0000000     
     2      (1,11,5)              0.0000000     
     3      (1,5,5)               0.0000000     
 -----------------------------------------------




 CHD PACKAGE (CHD-FROM-IBOUND) FLOW RATES   PERIOD      8   STEP        2
 -----------------------------------------------
   NUMBER   CELLID                    RATE      
 -----------------------------------------------
     1      (1,1,1)              -2597.1681     
     2      (1,1,2)              -2597.1708     
     3      (1,1,3)              -2597.1708     
     4      (1,1,4)              -2597.1692     
     5      (1,1,5)              -2597.1675     
     6      (1,1,6)              -2597.1660     
     7      (1,1,7)              -2597.1643     
     8      (1,1,8)              -2597.1620     
     9      (1,1,9)              -2597.1597     
     10     (1,21,1)             -2597.1599     
     11     (1,21,2)             -2597.1631     
     12     (1,21,3)             -2597.1659     
     13     (1,21,4)             -2597.1677     
     14     (1,21,5)             -2597.1695     
     15     (1,21,6)             -2597.1717     
     16     (1,21,7)             -2597.1734     
     17     (1,21,8)             -2597.1723     
     18     (1,21,9)             -2597.1674     
 -----------------------------------------------




 HEAD WILL BE SAVED ON UNIT 1016 AT END OF TIME STEP    2, STRESS PERIOD    8


  VOLUME BUDGET FOR ENTIRE MODEL AT END OF TIME STEP    2, STRESS PERIOD   8
  ---------------------------------------------------------------------------------------------------

     CUMULATIVE VOLUME      L**3       RATES FOR THIS TIME STEP      L**3/T          PACKAGE NAME    
     ------------------                 ------------------------                     ----------------

           IN:                                      IN:
           ---                                      ---
              STO-SS =      288247.3013                STO-SS =       40943.4177     STORAGE                          
              STO-SY =       11552.4266                STO-SY =        1530.5918     STORAGE                          
                 WEL =           0.0000                   WEL =           0.0000     WEL-1                            
                RCHA =    32122920.9802                  RCHA =        4275.0000     RCH-1                            
                 CHD =           0.0000                   CHD =           0.0000     CHD-FROM-IBOUND                  

            TOTAL IN =    32422720.7080              TOTAL IN =       46749.0094

          OUT:                                     OUT:
          ----                                     ----
              STO-SS =    23126572.6866                STO-SS =           0.0000     STORAGE                          
              STO-SY =      849754.3320                STO-SY =           0.0000     STORAGE                          
                 WEL =           0.0000                   WEL =           0.0000     WEL-1                            
                RCHA =           0.0000                  RCHA =           0.0000     RCH-1                            
                 CHD =     8446398.5170                   CHD =       46749.0094     CHD-FROM-IBOUND                  

           TOTAL OUT =    32422725.5356             TOTAL OUT =       46749.0094

            IN - OUT =          -4.8276              IN - OUT =       2.6091E-05

 PERCENT DISCREPANCY =          -0.00     PERCENT DISCREPANCY =           0.00




         TIME SUMMARY AT END OF TIME STEP    2 IN STRESS PERIOD    8
                    SECONDS     MINUTES      HOURS       DAYS        YEARS
                    -----------------------------------------------------------
   TIME STEP LENGTH 1.94804E+05  3246.7      54.112      2.2547     6.17295E-03
 STRESS PERIOD TIME 3.57140E+05  5952.3      99.206      4.1336     1.13171E-02
         TOTAL TIME 1.60819E+07 2.68032E+05  4467.2      186.13     0.50961    


end timestep


start timestep kper="8" kstp="3" mode="normal"

 UBDSV1 SAVING     FLOW-JA-FACE ON UNIT   1015 AT TIME STEP      3, STRESS PERIOD      8
 UBDSV06 SAVING              WEL IN MODEL MUMODEL          PACKAGE MUMODEL         CONNECTED TO MODEL MUMODEL          PACKAGE WEL-1            ON UNIT   1015 AT TIME STEP      3, STRESS PERIOD      8
 UBDSV06 SAVING             RCHA IN MODEL MUMODEL          PACKAGE MUMODEL         CONNECTED TO MODEL MUMODEL          PACKAGE RCH-1            ON UNIT   1015 AT TIME STEP      3, STRESS PERIOD      8

 WEL PACKAGE (WEL-1) FLOW RATES   PERIOD      8   STEP        3
 -----------------------------------------------
   NUMBER   CELLID                    RATE      
 -----------------------------------------------
     1      (1,5,5)               0.0000000     
     2      (1,11,5)              0.0000000     
     3      (1,5,5)               0.0000000     
 -----------------------------------------------




 CHD PACKAGE (CHD-FROM-IBOUND) FLOW RATES   PERIOD      8   STEP        3
 -----------------------------------------------
   NUMBER   CELLID                    RATE      
 -----------------------------------------------
     1      (1,1,1)              -2595.1041     
     2      (1,1,2)              -2595.1067     
     3      (1,1,3)              -2595.1067     
     4      (1,1,4)              -2595.1051     
     5      (1,1,5)              -2595.1035     
     6      (1,1,6)              -2595.1019     
     7      (1,1,7)              -2595.1002     
     8      (1,1,8)              -2595.0979     
     9      (1,1,9)              -2595.0957     
     10     (1,21,1)             -2595.0958     
     11     (1,21,2)             -2595.0991     
     12     (1,21,3)             -2595.1018     
     13     (1,21,4)             -2595.1037     
     14     (1,21,5)             -2595.1055     
     15     (1,21,6)             -2595.1076     
     16     (1,21,7)             -2595.1092     
     17     (1,21,8)             -2595.1081     
     18     (1,21,9)             -2595.1033     
 -----------------------------------------------




 HEAD WILL BE SAVED ON UNIT 1016 AT END OF TIME STEP    3, STRESS PERIOD    8


  VOLUME BUDGET FOR ENTIRE MODEL AT END OF TIME STEP    3, STRESS PERIOD   8
  ---------------------------------------------------------------------------------------------------

     CUMULATIVE VOLUME      L**3       RATES FOR THIS TIME STEP      L**3/T          PACKAGE NAME    
     ------------------                 ------------------------                     ----------------

           IN:                                      IN:
           ---                                      ---
              STO-SS =      398927.7385                STO-SS =       40907.8387     STORAGE                          
              STO-SY =       15689.3427                STO-SY =        1529.0172     STORAGE                          
                 WEL =           0.0000                   WEL =           0.0000     WEL-1                            
                RCHA =    32134487.4399                  RCHA =        4275.0000     RCH-1                            
                 CHD =           0.0000                   CHD =           0.0000     CHD-FROM-IBOUND                  

            TOTAL IN =    32549104.5210              TOTAL IN =       46711.8559

          OUT:                                     OUT:
          ----                                     ----
              STO-SS =    23126572.6866                STO-SS =           0.0000     STORAGE                          
              STO-SY =      849754.3320                STO-SY =           0.0000     STORAGE                          
                 WEL =           0.0000                   WEL =           0.0000     WEL-1                            
                RCHA =           0.0000                  RCHA =           0.0000     RCH-1                            
                 CHD =     8572782.3299                   CHD =       46711.8559     CHD-FROM-IBOUND                  

           TOTAL OUT =    32549109.3485             TOTAL OUT =       46711.8559

            IN - OUT =          -4.8275              IN - OUT =       4.5695E-05

 PERCENT DISCREPANCY =          -0.00     PERCENT DISCREPANCY =           0.00




         TIME SUMMARY AT END OF TIME STEP    3 IN STRESS PERIOD    8
                    SECONDS     MINUTES      HOURS       DAYS        YEARS
                    -----------------------------------------------------------
   TIME STEP LENGTH 2.33764E+05  3896.1      64.935      2.7056     7.40754E-03
 STRESS PERIOD TIME 5.90904E+05  9848.4      164.14      6.8392     1.87246E-02
         TOTAL TIME 1.63157E+07 2.71928E+05  4532.1      188.84     0.51701    


end timestep


start timestep kper="8" kstp="4" mode="normal"

 UBDSV1 SAVING     FLOW-JA-FACE ON UNIT   1015 AT TIME STEP      4, STRESS PERIOD      8
 UBDSV06 SAVING              WEL IN MODEL MUMODEL          PACKAGE MUMODEL         CONNECTED TO MODEL MUMODEL          PACKAGE WEL-1            ON UNIT   1015 AT TIME STEP      4, STRESS PERIOD      8
 UBDSV06 SAVING             RCHA IN MODEL MUMODEL          PACKAGE MUMODEL         CONNECTED TO MODEL MUMODEL          PACKAGE RCH-1            ON UNIT   1015 AT TIME STEP      4, STRESS PERIOD      8

 WEL PACKAGE (WEL-1) FLOW RATES   PERIOD      8   STEP        4
 -----------------------------------------------
   NUMBER   CELLID                    RATE      
 -----------------------------------------------
     1      (1,5,5)               0.0000000     
     2      (1,11,5)              0.0000000     
     3      (1,5,5)               0.0000000     
 -----------------------------------------------




 CHD PACKAGE (CHD-FROM-IBOUND) FLOW RATES   PERIOD      8   STEP        4
 -----------------------------------------------
   NUMBER   CELLID                    RATE      
 -----------------------------------------------
     1      (1,1,1)              -2592.6474     
     2      (1,1,2)              -2592.6500     
     3      (1,1,3)              -2592.6500     
     4      (1,1,4)              -2592.6485     
     5      (1,1,5)              -2592.6468     
     6      (1,1,6)              -2592.6453     
     7      (1,1,7)              -2592.6436     
     8      (1,1,8)              -2592.6413     
     9      (1,1,9)              -2592.6391     
     10     (1,21,1)             -2592.6392     
     11     (1,21,2)             -2592.6424     
     12     (1,21,3)             -2592.6452     
     13     (1,21,4)             -2592.6470     
     14     (1,21,5)             -2592.6488     
     15     (1,21,6)             -2592.6509     
     16     (1,21,7)             -2592.6525     
     17     (1,21,8)             -2592.6514     
     18     (1,21,9)             -2592.6467     
 -----------------------------------------------




 HEAD WILL BE SAVED ON UNIT 1016 AT END OF TIME STEP    4, STRESS PERIOD    8


  VOLUME BUDGET FOR ENTIRE MODEL AT END OF TIME STEP    4, STRESS PERIOD   8
  ---------------------------------------------------------------------------------------------------

     CUMULATIVE VOLUME      L**3       RATES FOR THIS TIME STEP      L**3/T          PACKAGE NAME    
     ------------------                 ------------------------                     ----------------

           IN:                                      IN:
           ---                                      ---
              STO-SS =      531606.7749                STO-SS =       40865.4920     STORAGE                          
              STO-SY =       20647.5603                STO-SY =        1527.1441     STORAGE                          
                 WEL =           0.0000                   WEL =           0.0000     WEL-1                            
                RCHA =    32148367.1916                  RCHA =        4275.0000     RCH-1                            
                 CHD =           0.0000                   CHD =           0.0000     CHD-FROM-IBOUND                  

            TOTAL IN =    32700621.5268              TOTAL IN =       46667.6360

          OUT:                                     OUT:
          ----                                     ----
              STO-SS =    23126572.6866                STO-SS =           0.0000     STORAGE                          
              STO-SY =      849754.3320                STO-SY =           0.0000     STORAGE                          
                 WEL =           0.0000                   WEL =           0.0000     WEL-1                            
                RCHA =           0.0000                  RCHA =           0.0000     RCH-1                            
                 CHD =     8724299.3355                   CHD =       46667.6360     CHD-FROM-IBOUND                  

           TOTAL OUT =    32700626.3540             TOTAL OUT =       46667.6360

            IN - OUT =          -4.8272              IN - OUT =       7.9225E-05

 PERCENT DISCREPANCY =          -0.00     PERCENT DISCREPANCY =           0.00




         TIME SUMMARY AT END OF TIME STEP    4 IN STRESS PERIOD    8
                    SECONDS     MINUTES      HOURS       DAYS        YEARS
                    -----------------------------------------------------------
   TIME STEP LENGTH 2.80517E+05  4675.3      77.921      3.2467     8.88905E-03
 STRESS PERIOD TIME 8.71421E+05  14524.      242.06      10.086     2.76137E-02
         TOTAL TIME 1.65962E+07 2.76604E+05  4610.1      192.09     0.52590    


end timestep


start timestep kper="8" kstp="5" mode="normal"

 UBDSV1 SAVING     FLOW-JA-FACE ON UNIT   1015 AT TIME STEP      5, STRESS PERIOD      8
 UBDSV06 SAVING              WEL IN MODEL MUMODEL          PACKAGE MUMODEL         CONNECTED TO MODEL MUMODEL          PACKAGE WEL-1            ON UNIT   1015 AT TIME STEP      5, STRESS PERIOD      8
 UBDSV06 SAVING             RCHA IN MODEL MUMODEL          PACKAGE MUMODEL         CONNECTED TO MODEL MUMODEL          PACKAGE RCH-1            ON UNIT   1015 AT TIME STEP      5, STRESS PERIOD      8

 WEL PACKAGE (WEL-1) FLOW RATES   PERIOD      8   STEP        5
 -----------------------------------------------
   NUMBER   CELLID                    RATE      
 -----------------------------------------------
     1      (1,5,5)               0.0000000     
     2      (1,11,5)              0.0000000     
     3      (1,5,5)               0.0000000     
 -----------------------------------------------




 CHD PACKAGE (CHD-FROM-IBOUND) FLOW RATES   PERIOD      8   STEP        5
 -----------------------------------------------
   NUMBER   CELLID                    RATE      
 -----------------------------------------------
     1      (1,1,1)              -2589.7281     
     2      (1,1,2)              -2589.7306     
     3      (1,1,3)              -2589.7306     
     4      (1,1,4)              -2589.7291     
     5      (1,1,5)              -2589.7275     
     6      (1,1,6)              -2589.7260     
     7      (1,1,7)              -2589.7243     
     8      (1,1,8)              -2589.7220     
     9      (1,1,9)              -2589.7198     
     10     (1,21,1)             -2589.7200     
     11     (1,21,2)             -2589.7231     
     12     (1,21,3)             -2589.7259     
     13     (1,21,4)             -2589.7277     
     14     (1,21,5)             -2589.7295     
     15     (1,21,6)             -2589.7316     
     16     (1,21,7)             -2589.7332     
     17     (1,21,8)             -2589.7320     
     18     (1,21,9)             -2589.7274     
 -----------------------------------------------




 HEAD WILL BE SAVED ON UNIT 1016 AT END OF TIME STEP    5, STRESS PERIOD    8


  VOLUME BUDGET FOR ENTIRE MODEL AT END OF TIME STEP    5, STRESS PERIOD   8
  ---------------------------------------------------------------------------------------------------

     CUMULATIVE VOLUME      L**3       RATES FOR THIS TIME STEP      L**3/T          PACKAGE NAME    
     ------------------                 ------------------------                     ----------------

           IN:                                      IN:
           ---                                      ---
              STO-SS =      690625.5575                STO-SS =       40815.1692     STORAGE                          
              STO-SY =       26588.7535                STO-SY =        1524.9193     STORAGE                          
                 WEL =           0.0000                   WEL =           0.0000     WEL-1                            
                RCHA =    32165022.8936                  RCHA =        4275.0000     RCH-1                            
                 CHD =           0.0000                   CHD =           0.0000     CHD-FROM-IBOUND                  

            TOTAL IN =    32882237.2046              TOTAL IN =       46615.0884

          OUT:                                     OUT:
          ----                                     ----
              STO-SS =    23126572.6866                STO-SS =           0.0000     STORAGE                          
              STO-SY =      849754.3320                STO-SY =           0.0000     STORAGE                          
                 WEL =           0.0000                   WEL =           0.0000     WEL-1                            
                RCHA =           0.0000                  RCHA =           0.0000     RCH-1                            
                 CHD =     8905915.0127                   CHD =       46615.0883     CHD-FROM-IBOUND                  

           TOTAL OUT =    32882242.0313             TOTAL OUT =       46615.0883

            IN - OUT =          -4.8267              IN - OUT =       1.3839E-04

 PERCENT DISCREPANCY =          -0.00     PERCENT DISCREPANCY =           0.00




         TIME SUMMARY AT END OF TIME STEP    5 IN STRESS PERIOD    8
                    SECONDS     MINUTES      HOURS       DAYS        YEARS
                    -----------------------------------------------------------
   TIME STEP LENGTH 3.36621E+05  5610.3      93.506      3.8961     1.06669E-02
 STRESS PERIOD TIME 1.20804E+06  20134.      335.57      13.982     3.82805E-02
         TOTAL TIME 1.69328E+07 2.82214E+05  4703.6      195.98     0.53657    


end timestep


start timestep kper="8" kstp="6" mode="normal"

 UBDSV1 SAVING     FLOW-JA-FACE ON UNIT   1015 AT TIME STEP      6, STRESS PERIOD      8
 UBDSV06 SAVING              WEL IN MODEL MUMODEL          PACKAGE MUMODEL         CONNECTED TO MODEL MUMODEL          PACKAGE WEL-1            ON UNIT   1015 AT TIME STEP      6, STRESS PERIOD      8
 UBDSV06 SAVING             RCHA IN MODEL MUMODEL          PACKAGE MUMODEL         CONNECTED TO MODEL MUMODEL          PACKAGE RCH-1            ON UNIT   1015 AT TIME STEP      6, STRESS PERIOD      8

 WEL PACKAGE (WEL-1) FLOW RATES   PERIOD      8   STEP        6
 -----------------------------------------------
   NUMBER   CELLID                    RATE      
 -----------------------------------------------
     1      (1,5,5)               0.0000000     
     2      (1,11,5)              0.0000000     
     3      (1,5,5)               0.0000000     
 -----------------------------------------------




 CHD PACKAGE (CHD-FROM-IBOUND) FLOW RATES   PERIOD      8   STEP        6
 -----------------------------------------------
   NUMBER   CELLID                    RATE      
 -----------------------------------------------
     1      (1,1,1)              -2586.2654     
     2      (1,1,2)              -2586.2679     
     3      (1,1,3)              -2586.2680     
     4      (1,1,4)              -2586.2665     
     5      (1,1,5)              -2586.2648     
     6      (1,1,6)              -2586.2633     
     7      (1,1,7)              -2586.2616     
     8      (1,1,8)              -2586.2593     
     9      (1,1,9)              -2586.2572     
     10     (1,21,1)             -2586.2574     
     11     (1,21,2)             -2586.2605     
     12     (1,21,3)             -2586.2632     
     13     (1,21,4)             -2586.2650     
     14     (1,21,5)             -2586.2668     
     15     (1,21,6)             -2586.2689     
     16     (1,21,7)             -2586.2705     
     17     (1,21,8)             -2586.2693     
     18     (1,21,9)             -2586.2647     
 -----------------------------------------------




 HEAD WILL BE SAVED ON UNIT 1016 AT END OF TIME STEP    6, STRESS PERIOD    8


  VOLUME BUDGET FOR ENTIRE MODEL AT END OF TIME STEP    6, STRESS PERIOD   8
  ---------------------------------------------------------------------------------------------------

     CUMULATIVE VOLUME      L**3       RATES FOR THIS TIME STEP      L**3/T          PACKAGE NAME    
     ------------------                 ------------------------                     ----------------

           IN:                                      IN:
           ---                                      ---
              STO-SS =      881169.0265                STO-SS =       40755.4787     STORAGE                          
              STO-SY =       33705.8554                STO-SY =        1522.2820     STORAGE                          
                 WEL =           0.0000                   WEL =           0.0000     WEL-1                            
                RCHA =    32185009.7360                  RCHA =        4275.0000     RCH-1                            
                 CHD =           0.0000                   CHD =           0.0000     CHD-FROM-IBOUND                  

            TOTAL IN =    33099884.6179              TOTAL IN =       46552.7607

          OUT:                                     OUT:
          ----                                     ----
              STO-SS =    23126572.6866                STO-SS =           0.0000     STORAGE                          
              STO-SY =      849754.3320                STO-SY =           0.0000     STORAGE                          
                 WEL =           0.0000                   WEL =           0.0000     WEL-1                            
                RCHA =           0.0000                  RCHA =           0.0000     RCH-1                            
                 CHD =     9123562.4250                   CHD =       46552.7604     CHD-FROM-IBOUND                  

           TOTAL OUT =    33099889.4435             TOTAL OUT =       46552.7604

            IN - OUT =          -4.8256              IN - OUT =       2.2989E-04

 PERCENT DISCREPANCY =          -0.00     PERCENT DISCREPANCY =           0.00




         TIME SUMMARY AT END OF TIME STEP    6 IN STRESS PERIOD    8
                    SECONDS     MINUTES      HOURS       DAYS        YEARS
                    -----------------------------------------------------------
   TIME STEP LENGTH 4.03945E+05  6732.4      112.21      4.6753     1.28002E-02
 STRESS PERIOD TIME 1.61199E+06  26866.      447.77      18.657     5.10808E-02
         TOTAL TIME 1.73368E+07 2.88946E+05  4815.8      200.66     0.54937    


end timestep


start timestep kper="8" kstp="7" mode="normal"

 UBDSV1 SAVING     FLOW-JA-FACE ON UNIT   1015 AT TIME STEP      7, STRESS PERIOD      8
 UBDSV06 SAVING              WEL IN MODEL MUMODEL          PACKAGE MUMODEL         CONNECTED TO MODEL MUMODEL          PACKAGE WEL-1            ON UNIT   1015 AT TIME STEP      7, STRESS PERIOD      8
 UBDSV06 SAVING             RCHA IN MODEL MUMODEL          PACKAGE MUMODEL         CONNECTED TO MODEL MUMODEL          PACKAGE RCH-1            ON UNIT   1015 AT TIME STEP      7, STRESS PERIOD      8

 WEL PACKAGE (WEL-1) FLOW RATES   PERIOD      8   STEP        7
 -----------------------------------------------
   NUMBER   CELLID                    RATE      
 -----------------------------------------------
     1      (1,5,5)               0.0000000     
     2      (1,11,5)              0.0000000     
     3      (1,5,5)               0.0000000     
 -----------------------------------------------




 CHD PACKAGE (CHD-FROM-IBOUND) FLOW RATES   PERIOD      8   STEP        7
 -----------------------------------------------
   NUMBER   CELLID                    RATE      
 -----------------------------------------------
     1      (1,1,1)              -2582.1673     
     2      (1,1,2)              -2582.1697     
     3      (1,1,3)              -2582.1698     
     4      (1,1,4)              -2582.1683     
     5      (1,1,5)              -2582.1667     
     6      (1,1,6)              -2582.1652     
     7      (1,1,7)              -2582.1635     
     8      (1,1,8)              -2582.1612     
     9      (1,1,9)              -2582.1591     
     10     (1,21,1)             -2582.1593     
     11     (1,21,2)             -2582.1624     
     12     (1,21,3)             -2582.1651     
     13     (1,21,4)             -2582.1669     
     14     (1,21,5)             -2582.1687     
     15     (1,21,6)             -2582.1707     
     16     (1,21,7)             -2582.1722     
     17     (1,21,8)             -2582.1711     
     18     (1,21,9)             -2582.1666     
 -----------------------------------------------




 HEAD WILL BE SAVED ON UNIT 1016 AT END OF TIME STEP    7, STRESS PERIOD    8


  VOLUME BUDGET FOR ENTIRE MODEL AT END OF TIME STEP    7, STRESS PERIOD   8
  ---------------------------------------------------------------------------------------------------

     CUMULATIVE VOLUME      L**3       RATES FOR THIS TIME STEP      L**3/T          PACKAGE NAME    
     ------------------                 ------------------------                     ----------------

           IN:                                      IN:
           ---                                      ---
              STO-SS =     1109424.8309                STO-SS =       40684.8308     STORAGE                          
              STO-SY =       42228.8794                STO-SY =        1519.1631     STORAGE                          
                 WEL =           0.0000                   WEL =           0.0000     WEL-1                            
                RCHA =    32208993.9469                  RCHA =        4275.0000     RCH-1                            
                 CHD =           0.0000                   CHD =           0.0000     CHD-FROM-IBOUND                  

            TOTAL IN =    33360647.6572              TOTAL IN =       46478.9939

          OUT:                                     OUT:
          ----                                     ----
              STO-SS =    23126572.6866                STO-SS =           0.0000     STORAGE                          
              STO-SY =      849754.3320                STO-SY =           0.0000     STORAGE                          
                 WEL =           0.0000                   WEL =           0.0000     WEL-1                            
                RCHA =           0.0000                  RCHA =           0.0000     RCH-1                            
                 CHD =     9384325.4621                   CHD =       46478.9935     CHD-FROM-IBOUND                  

           TOTAL OUT =    33360652.4807             TOTAL OUT =       46478.9935

            IN - OUT =          -4.8235              IN - OUT =       3.8031E-04

 PERCENT DISCREPANCY =          -0.00     PERCENT DISCREPANCY =           0.00




         TIME SUMMARY AT END OF TIME STEP    7 IN STRESS PERIOD    8
                    SECONDS     MINUTES      HOURS       DAYS        YEARS
                    -----------------------------------------------------------
   TIME STEP LENGTH 4.84734E+05  8078.9      134.65      5.6103     1.53603E-02
 STRESS PERIOD TIME 2.09672E+06  34945.      582.42      24.268     6.64410E-02
         TOTAL TIME 1.78215E+07 2.97025E+05  4950.4      206.27     0.56473    


end timestep


start timestep kper="8" kstp="8" mode="normal"

 UBDSV1 SAVING     FLOW-JA-FACE ON UNIT   1015 AT TIME STEP      8, STRESS PERIOD      8
 UBDSV06 SAVING              WEL IN MODEL MUMODEL          PACKAGE MUMODEL         CONNECTED TO MODEL MUMODEL          PACKAGE WEL-1            ON UNIT   1015 AT TIME STEP      8, STRESS PERIOD      8
 UBDSV06 SAVING             RCHA IN MODEL MUMODEL          PACKAGE MUMODEL         CONNECTED TO MODEL MUMODEL          PACKAGE RCH-1            ON UNIT   1015 AT TIME STEP      8, STRESS PERIOD      8

 WEL PACKAGE (WEL-1) FLOW RATES   PERIOD      8   STEP        8
 -----------------------------------------------
   NUMBER   CELLID                    RATE      
 -----------------------------------------------
     1      (1,5,5)               0.0000000     
     2      (1,11,5)              0.0000000     
     3      (1,5,5)               0.0000000     
 -----------------------------------------------




 CHD PACKAGE (CHD-FROM-IBOUND) FLOW RATES   PERIOD      8   STEP        8
 -----------------------------------------------
   NUMBER   CELLID                    RATE      
 -----------------------------------------------
     1      (1,1,1)              -2577.3294     
     2      (1,1,2)              -2577.3318     
     3      (1,1,3)              -2577.3318     
     4      (1,1,4)              -2577.3304     
     5      (1,1,5)              -2577.3288     
     6      (1,1,6)              -2577.3273     
     7      (1,1,7)              -2577.3256     
     8      (1,1,8)              -2577.3234     
     9      (1,1,9)              -2577.3212     
     10     (1,21,1)             -2577.3216     
     11     (1,21,2)             -2577.3246     
     12     (1,21,3)             -2577.3272     
     13     (1,21,4)             -2577.3290     
     14     (1,21,5)             -2577.3308     
     15     (1,21,6)             -2577.3328     
     16     (1,21,7)             -2577.3343     
     17     (1,21,8)             -2577.3331     
     18     (1,21,9)             -2577.3287     
 -----------------------------------------------




 HEAD WILL BE SAVED ON UNIT 1016 AT END OF TIME STEP    8, STRESS PERIOD    8


  VOLUME BUDGET FOR ENTIRE MODEL AT END OF TIME STEP    8, STRESS PERIOD   8
  ---------------------------------------------------------------------------------------------------

     CUMULATIVE VOLUME      L**3       RATES FOR THIS TIME STEP      L**3/T          PACKAGE NAME    
     ------------------                 ------------------------                     ----------------

           IN:                                      IN:
           ---                                      ---
              STO-SS =     1382770.2933                STO-SS =       40601.4279     STORAGE                          
              STO-SY =       52431.7426                STO-SY =        1515.4845     STORAGE                          
                 WEL =           0.0000                   WEL =           0.0000     WEL-1                            
                RCHA =    32237775.0000                  RCHA =        4275.0000     RCH-1                            
                 CHD =           0.0000                   CHD =           0.0000     CHD-FROM-IBOUND                  

            TOTAL IN =    33672977.0359              TOTAL IN =       46391.9124

          OUT:                                     OUT:
          ----                                     ----
              STO-SS =    23126572.6866                STO-SS =           0.0000     STORAGE                          
              STO-SY =      849754.3320                STO-SY =           0.0000     STORAGE                          
                 WEL =           0.0000                   WEL =           0.0000     WEL-1                            
                RCHA =           0.0000                  RCHA =           0.0000     RCH-1                            
                 CHD =     9696654.8366                   CHD =       46391.9118     CHD-FROM-IBOUND                  

           TOTAL OUT =    33672981.8551             TOTAL OUT =       46391.9118

            IN - OUT =          -4.8193              IN - OUT =       6.2558E-04

 PERCENT DISCREPANCY =          -0.00     PERCENT DISCREPANCY =           0.00




         TIME SUMMARY AT END OF TIME STEP    8 IN STRESS PERIOD    8
                    SECONDS     MINUTES      HOURS       DAYS        YEARS
                    -----------------------------------------------------------
   TIME STEP LENGTH 5.81680E+05  9694.7      161.58      6.7324     1.84323E-02
 STRESS PERIOD TIME 2.67840E+06  44640.      744.00      31.000     8.48734E-02
         TOTAL TIME 1.84032E+07 3.06720E+05  5112.0      213.00     0.58316    


end timestep


start timestep kper="9" kstp="1" mode="normal"


 OUTPUT CONTROL FOR STRESS PERIOD 9 IS REPEATED USING SETTINGS FROM A PREVIOUS STRESS PERIOD.


 STRESS PERIOD 9 IS TRANSIENT


 REUSING WELS FROM LAST STRESS PERIOD

 REUSING RCHS FROM LAST STRESS PERIOD

 REUSING CHDS FROM LAST STRESS PERIOD
 UBDSV1 SAVING     FLOW-JA-FACE ON UNIT   1015 AT TIME STEP      1, STRESS PERIOD      9
 UBDSV06 SAVING              WEL IN MODEL MUMODEL          PACKAGE MUMODEL         CONNECTED TO MODEL MUMODEL          PACKAGE WEL-1            ON UNIT   1015 AT TIME STEP      1, STRESS PERIOD      9
 UBDSV06 SAVING             RCHA IN MODEL MUMODEL          PACKAGE MUMODEL         CONNECTED TO MODEL MUMODEL          PACKAGE RCH-1            ON UNIT   1015 AT TIME STEP      1, STRESS PERIOD      9

 WEL PACKAGE (WEL-1) FLOW RATES   PERIOD      9   STEP        1
 -----------------------------------------------
   NUMBER   CELLID                    RATE      
 -----------------------------------------------
     1      (1,5,5)               0.0000000     
     2      (1,11,5)              0.0000000     
     3      (1,5,5)               0.0000000     
 -----------------------------------------------




 CHD PACKAGE (CHD-FROM-IBOUND) FLOW RATES   PERIOD      9   STEP        1
 -----------------------------------------------
   NUMBER   CELLID                    RATE      
 -----------------------------------------------
     1      (1,1,1)              -2575.9853     
     2      (1,1,2)              -2575.9877     
     3      (1,1,3)              -2575.9877     
     4      (1,1,4)              -2575.9863     
     5      (1,1,5)              -2575.9847     
     6      (1,1,6)              -2575.9832     
     7      (1,1,7)              -2575.9815     
     8      (1,1,8)              -2575.9793     
     9      (1,1,9)              -2575.9772     
     10     (1,21,1)             -2575.9775     
     11     (1,21,2)             -2575.9805     
     12     (1,21,3)             -2575.9831     
     13     (1,21,4)             -2575.9849     
     14     (1,21,5)             -2575.9867     
     15     (1,21,6)             -2575.9887     
     16     (1,21,7)             -2575.9902     
     17     (1,21,8)             -2575.9890     
     18     (1,21,9)             -2575.9846     
 -----------------------------------------------




 HEAD WILL BE SAVED ON UNIT 1016 AT END OF TIME STEP    1, STRESS PERIOD    9


  VOLUME BUDGET FOR ENTIRE MODEL AT END OF TIME STEP    1, STRESS PERIOD   9
  ---------------------------------------------------------------------------------------------------

     CUMULATIVE VOLUME      L**3       RATES FOR THIS TIME STEP      L**3/T          PACKAGE NAME    
     ------------------                 ------------------------                     ----------------

           IN:                                      IN:
           ---                                      ---
              STO-SS =     1459012.3504                STO-SS =       40578.1989     STORAGE                          
              STO-SY =       55277.3612                STO-SY =        1514.5194     STORAGE                          
                 WEL =           0.0000                   WEL =           0.0000     WEL-1                            
                RCHA =    32245807.2637                  RCHA =        4275.0000     RCH-1                            
                 CHD =           0.0000                   CHD =           0.0000     CHD-FROM-IBOUND                  

            TOTAL IN =    33760096.9753              TOTAL IN =       46367.7183

          OUT:                                     OUT:
          ----                                     ----
              STO-SS =    23126572.6866                STO-SS =           0.0000     STORAGE                          
              STO-SY =      849754.3320                STO-SY =           0.0000     STORAGE                          
                 WEL =           0.0000                   WEL =           0.0000     WEL-1                            
                RCHA =           0.0000                  RCHA =           0.0000     RCH-1                            
                 CHD =     9783774.7760                   CHD =       46367.7183     CHD-FROM-IBOUND                  

           TOTAL OUT =    33760101.7946             TOTAL OUT =       46367.7183

            IN - OUT =          -4.8192              IN - OUT =       1.6259E-05

 PERCENT DISCREPANCY =          -0.00     PERCENT DISCREPANCY =           0.00




         TIME SUMMARY AT END OF TIME STEP    1 IN STRESS PERIOD    9
                    SECONDS     MINUTES      HOURS       DAYS        YEARS
                    -----------------------------------------------------------
   TIME STEP LENGTH 1.62336E+05  2705.6      45.093      1.8789     5.14413E-03
 STRESS PERIOD TIME 1.62336E+05  2705.6      45.093      1.8789     5.14413E-03
         TOTAL TIME 1.85655E+07 3.09426E+05  5157.1      214.88     0.58831    


end timestep


start timestep kper="9" kstp="2" mode="normal"

 UBDSV1 SAVING     FLOW-JA-FACE ON UNIT   1015 AT TIME STEP      2, STRESS PERIOD      9
 UBDSV06 SAVING              WEL IN MODEL MUMODEL          PACKAGE MUMODEL         CONNECTED TO MODEL MUMODEL          PACKAGE WEL-1            ON UNIT   1015 AT TIME STEP      2, STRESS PERIOD      9
 UBDSV06 SAVING             RCHA IN MODEL MUMODEL          PACKAGE MUMODEL         CONNECTED TO MODEL MUMODEL          PACKAGE RCH-1            ON UNIT   1015 AT TIME STEP      2, STRESS PERIOD      9

 WEL PACKAGE (WEL-1) FLOW RATES   PERIOD      9   STEP        2
 -----------------------------------------------
   NUMBER   CELLID                    RATE      
 -----------------------------------------------
     1      (1,5,5)               0.0000000     
     2      (1,11,5)              0.0000000     
     3      (1,5,5)               0.0000000     
 -----------------------------------------------




 CHD PACKAGE (CHD-FROM-IBOUND) FLOW RATES   PERIOD      9   STEP        2
 -----------------------------------------------
   NUMBER   CELLID                    RATE      
 -----------------------------------------------
     1      (1,1,1)              -2574.3813     
     2      (1,1,2)              -2574.3837     
     3      (1,1,3)              -2574.3837     
     4      (1,1,4)              -2574.3823     
     5      (1,1,5)              -2574.3807     
     6      (1,1,6)              -2574.3792     
     7      (1,1,7)              -2574.3776     
     8      (1,1,8)              -2574.3753     
     9      (1,1,9)              -2574.3732     
     10     (1,21,1)             -2574.3736     
     11     (1,21,2)             -2574.3765     
     12     (1,21,3)             -2574.3792     
     13     (1,21,4)             -2574.3810     
     14     (1,21,5)             -2574.3827     
     15     (1,21,6)             -2574.3847     
     16     (1,21,7)             -2574.3861     
     17     (1,21,8)             -2574.3849     
     18     (1,21,9)             -2574.3806     
 -----------------------------------------------




 HEAD WILL BE SAVED ON UNIT 1016 AT END OF TIME STEP    2, STRESS PERIOD    9


  VOLUME BUDGET FOR ENTIRE MODEL AT END OF TIME STEP    2, STRESS PERIOD   9
  ---------------------------------------------------------------------------------------------------

     CUMULATIVE VOLUME      L**3       RATES FOR THIS TIME STEP      L**3/T          PACKAGE NAME    
     ------------------                 ------------------------                     ----------------

           IN:                                      IN:
           ---                                      ---
              STO-SS =     1550440.4717                STO-SS =       40550.5464     STORAGE                          
              STO-SY =       58689.3544                STO-SY =        1513.3002     STORAGE                          
                 WEL =           0.0000                   WEL =           0.0000     WEL-1                            
                RCHA =    32255445.9802                  RCHA =        4275.0000     RCH-1                            
                 CHD =           0.0000                   CHD =           0.0000     CHD-FROM-IBOUND                  

            TOTAL IN =    33864575.8063              TOTAL IN =       46338.8466

          OUT:                                     OUT:
          ----                                     ----
              STO-SS =    23126572.6866                STO-SS =           0.0000     STORAGE                          
              STO-SY =      849754.3320                STO-SY =           0.0000     STORAGE                          
                 WEL =           0.0000                   WEL =           0.0000     WEL-1                            
                RCHA =           0.0000                  RCHA =           0.0000     RCH-1                            
                 CHD =     9888253.6070                   CHD =       46338.8466     CHD-FROM-IBOUND                  

           TOTAL OUT =    33864580.6255             TOTAL OUT =       46338.8466

            IN - OUT =          -4.8192              IN - OUT =       2.2660E-05

 PERCENT DISCREPANCY =          -0.00     PERCENT DISCREPANCY =           0.00




         TIME SUMMARY AT END OF TIME STEP    2 IN STRESS PERIOD    9
                    SECONDS     MINUTES      HOURS       DAYS        YEARS
                    -----------------------------------------------------------
   TIME STEP LENGTH 1.94804E+05  3246.7      54.112      2.2547     6.17295E-03
 STRESS PERIOD TIME 3.57140E+05  5952.3      99.206      4.1336     1.13171E-02
         TOTAL TIME 1.87603E+07 3.12672E+05  5211.2      217.13     0.59448    


end timestep


start timestep kper="9" kstp="3" mode="normal"

 UBDSV1 SAVING     FLOW-JA-FACE ON UNIT   1015 AT TIME STEP      3, STRESS PERIOD      9
 UBDSV06 SAVING              WEL IN MODEL MUMODEL          PACKAGE MUMODEL         CONNECTED TO MODEL MUMODEL          PACKAGE WEL-1            ON UNIT   1015 AT TIME STEP      3, STRESS PERIOD      9
 UBDSV06 SAVING             RCHA IN MODEL MUMODEL          PACKAGE MUMODEL         CONNECTED TO MODEL MUMODEL          PACKAGE RCH-1            ON UNIT   1015 AT TIME STEP      3, STRESS PERIOD      9

 WEL PACKAGE (WEL-1) FLOW RATES   PERIOD      9   STEP        3
 -----------------------------------------------
   NUMBER   CELLID                    RATE      
 -----------------------------------------------
     1      (1,5,5)               0.0000000     
     2      (1,11,5)              0.0000000     
     3      (1,5,5)               0.0000000     
 -----------------------------------------------




 CHD PACKAGE (CHD-FROM-IBOUND) FLOW RATES   PERIOD      9   STEP        3
 -----------------------------------------------
   NUMBER   CELLID                    RATE      
 -----------------------------------------------
     1      (1,1,1)              -2572.4691     
     2      (1,1,2)              -2572.4714     
     3      (1,1,3)              -2572.4715     
     4      (1,1,4)              -2572.4701     
     5      (1,1,5)              -2572.4685     
     6      (1,1,6)              -2572.4670     
     7      (1,1,7)              -2572.4653     
     8      (1,1,8)              -2572.4631     
     9      (1,1,9)              -2572.4610     
     10     (1,21,1)             -2572.4614     
     11     (1,21,2)             -2572.4643     
     12     (1,21,3)             -2572.4669     
     13     (1,21,4)             -2572.4687     
     14     (1,21,5)             -2572.4705     
     15     (1,21,6)             -2572.4725     
     16     (1,21,7)             -2572.4739     
     17     (1,21,8)             -2572.4727     
     18     (1,21,9)             -2572.4684     
 -----------------------------------------------




 HEAD WILL BE SAVED ON UNIT 1016 AT END OF TIME STEP    3, STRESS PERIOD    9


  VOLUME BUDGET FOR ENTIRE MODEL AT END OF TIME STEP    3, STRESS PERIOD   9
  ---------------------------------------------------------------------------------------------------

     CUMULATIVE VOLUME      L**3       RATES FOR THIS TIME STEP      L**3/T          PACKAGE NAME    
     ------------------                 ------------------------                     ----------------

           IN:                                      IN:
           ---                                      ---
              STO-SS =     1660065.0215                STO-SS =       40517.5793     STORAGE                          
              STO-SY =       62779.8149                STO-SY =        1511.8471     STORAGE                          
                 WEL =           0.0000                   WEL =           0.0000     WEL-1                            
                RCHA =    32267012.4399                  RCHA =        4275.0000     RCH-1                            
                 CHD =           0.0000                   CHD =           0.0000     CHD-FROM-IBOUND                  

            TOTAL IN =    33989857.2763              TOTAL IN =       46304.4264

          OUT:                                     OUT:
          ----                                     ----
              STO-SS =    23126572.6866                STO-SS =           0.0000     STORAGE                          
              STO-SY =      849754.3320                STO-SY =           0.0000     STORAGE                          
                 WEL =           0.0000                   WEL =           0.0000     WEL-1                            
                RCHA =           0.0000                  RCHA =           0.0000     RCH-1                            
                 CHD =    10013535.0768                   CHD =       46304.4264     CHD-FROM-IBOUND                  

           TOTAL OUT =    33989862.0954             TOTAL OUT =       46304.4264

            IN - OUT =          -4.8191              IN - OUT =       4.1127E-05

 PERCENT DISCREPANCY =          -0.00     PERCENT DISCREPANCY =           0.00




         TIME SUMMARY AT END OF TIME STEP    3 IN STRESS PERIOD    9
                    SECONDS     MINUTES      HOURS       DAYS        YEARS
                    -----------------------------------------------------------
   TIME STEP LENGTH 2.33764E+05  3896.1      64.935      2.7056     7.40754E-03
 STRESS PERIOD TIME 5.90904E+05  9848.4      164.14      6.8392     1.87246E-02
         TOTAL TIME 1.89941E+07 3.16568E+05  5276.1      219.84     0.60189    


end timestep


start timestep kper="9" kstp="4" mode="normal"

 UBDSV1 SAVING     FLOW-JA-FACE ON UNIT   1015 AT TIME STEP      4, STRESS PERIOD      9
 UBDSV06 SAVING              WEL IN MODEL MUMODEL          PACKAGE MUMODEL         CONNECTED TO MODEL MUMODEL          PACKAGE WEL-1            ON UNIT   1015 AT TIME STEP      4, STRESS PERIOD      9
 UBDSV06 SAVING             RCHA IN MODEL MUMODEL          PACKAGE MUMODEL         CONNECTED TO MODEL MUMODEL          PACKAGE RCH-1            ON UNIT   1015 AT TIME STEP      4, STRESS PERIOD      9

 WEL PACKAGE (WEL-1) FLOW RATES   PERIOD      9   STEP        4
 -----------------------------------------------
   NUMBER   CELLID                    RATE      
 -----------------------------------------------
     1      (1,5,5)               0.0000000     
     2      (1,11,5)              0.0000000     
     3      (1,5,5)               0.0000000     
 -----------------------------------------------




 CHD PACKAGE (CHD-FROM-IBOUND) FLOW RATES   PERIOD      9   STEP        4
 -----------------------------------------------
   NUMBER   CELLID                    RATE      
 -----------------------------------------------
     1      (1,1,1)              -2570.1923     
     2      (1,1,2)              -2570.1946     
     3      (1,1,3)              -2570.1946     
     4      (1,1,4)              -2570.1932     
     5      (1,1,5)              -2570.1917     
     6      (1,1,6)              -2570.1902     
     7      (1,1,7)              -2570.1885     
     8      (1,1,8)              -2570.1863     
     9      (1,1,9)              -2570.1842     
     10     (1,21,1)             -2570.1846     
     11     (1,21,2)             -2570.1875     
     12     (1,21,3)             -2570.1901     
     13     (1,21,4)             -2570.1919     
     14     (1,21,5)             -2570.1936     
     15     (1,21,6)             -2570.1956     
     16     (1,21,7)             -2570.1970     
     17     (1,21,8)             -2570.1958     
     18     (1,21,9)             -2570.1916     
 -----------------------------------------------




 HEAD WILL BE SAVED ON UNIT 1016 AT END OF TIME STEP    4, STRESS PERIOD    9


  VOLUME BUDGET FOR ENTIRE MODEL AT END OF TIME STEP    4, STRESS PERIOD   9
  ---------------------------------------------------------------------------------------------------

     CUMULATIVE VOLUME      L**3       RATES FOR THIS TIME STEP      L**3/T          PACKAGE NAME    
     ------------------                 ------------------------                     ----------------

           IN:                                      IN:
           ---                                      ---
              STO-SS =     1791487.0352                STO-SS =       40478.3257     STORAGE                          
              STO-SY =       67682.7529                STO-SY =        1510.1178     STORAGE                          
                 WEL =           0.0000                   WEL =           0.0000     WEL-1                            
                RCHA =    32280892.1916                  RCHA =        4275.0000     RCH-1                            
                 CHD =           0.0000                   CHD =           0.0000     CHD-FROM-IBOUND                  

            TOTAL IN =    34140061.9798              TOTAL IN =       46263.4435

          OUT:                                     OUT:
          ----                                     ----
              STO-SS =    23126572.6866                STO-SS =           0.0000     STORAGE                          
              STO-SY =      849754.3320                STO-SY =           0.0000     STORAGE                          
                 WEL =           0.0000                   WEL =           0.0000     WEL-1                            
                RCHA =           0.0000                  RCHA =           0.0000     RCH-1                            
                 CHD =    10163739.7800                   CHD =       46263.4434     CHD-FROM-IBOUND                  

           TOTAL OUT =    34140066.7986             TOTAL OUT =       46263.4434

            IN - OUT =          -4.8188              IN - OUT =       6.8058E-05

 PERCENT DISCREPANCY =          -0.00     PERCENT DISCREPANCY =           0.00




         TIME SUMMARY AT END OF TIME STEP    4 IN STRESS PERIOD    9
                    SECONDS     MINUTES      HOURS       DAYS        YEARS
                    -----------------------------------------------------------
   TIME STEP LENGTH 2.80517E+05  4675.3      77.921      3.2467     8.88905E-03
 STRESS PERIOD TIME 8.71421E+05  14524.      242.06      10.086     2.76137E-02
         TOTAL TIME 1.92746E+07 3.21244E+05  5354.1      223.09     0.61078    


end timestep


start timestep kper="9" kstp="5" mode="normal"

 UBDSV1 SAVING     FLOW-JA-FACE ON UNIT   1015 AT TIME STEP      5, STRESS PERIOD      9
 UBDSV06 SAVING              WEL IN MODEL MUMODEL          PACKAGE MUMODEL         CONNECTED TO MODEL MUMODEL          PACKAGE WEL-1            ON UNIT   1015 AT TIME STEP      5, STRESS PERIOD      9
 UBDSV06 SAVING             RCHA IN MODEL MUMODEL          PACKAGE MUMODEL         CONNECTED TO MODEL MUMODEL          PACKAGE RCH-1            ON UNIT   1015 AT TIME STEP      5, STRESS PERIOD      9

 WEL PACKAGE (WEL-1) FLOW RATES   PERIOD      9   STEP        5
 -----------------------------------------------
   NUMBER   CELLID                    RATE      
 -----------------------------------------------
     1      (1,5,5)               0.0000000     
     2      (1,11,5)              0.0000000     
     3      (1,5,5)               0.0000000     
 -----------------------------------------------




 CHD PACKAGE (CHD-FROM-IBOUND) FLOW RATES   PERIOD      9   STEP        5
 -----------------------------------------------
   NUMBER   CELLID                    RATE      
 -----------------------------------------------
     1      (1,1,1)              -2567.4854     
     2      (1,1,2)              -2567.4876     
     3      (1,1,3)              -2567.4877     
     4      (1,1,4)              -2567.4863     
     5      (1,1,5)              -2567.4848     
     6      (1,1,6)              -2567.4833     
     7      (1,1,7)              -2567.4816     
     8      (1,1,8)              -2567.4794     
     9      (1,1,9)              -2567.4773     
     10     (1,21,1)             -2567.4777     
     11     (1,21,2)             -2567.4806     
     12     (1,21,3)             -2567.4832     
     13     (1,21,4)             -2567.4850     
     14     (1,21,5)             -2567.4867     
     15     (1,21,6)             -2567.4887     
     16     (1,21,7)             -2567.4901     
     17     (1,21,8)             -2567.4888     
     18     (1,21,9)             -2567.4847     
 -----------------------------------------------




 HEAD WILL BE SAVED ON UNIT 1016 AT END OF TIME STEP    5, STRESS PERIOD    9


  VOLUME BUDGET FOR ENTIRE MODEL AT END OF TIME STEP    5, STRESS PERIOD   9
  ---------------------------------------------------------------------------------------------------

     CUMULATIVE VOLUME      L**3       RATES FOR THIS TIME STEP      L**3/T          PACKAGE NAME    
     ------------------                 ------------------------                     ----------------

           IN:                                      IN:
           ---                                      ---
              STO-SS =     1949011.6244                STO-SS =       40431.6563     STORAGE                          
              STO-SY =       73558.2727                STO-SY =        1508.0630     STORAGE                          
                 WEL =           0.0000                   WEL =           0.0000     WEL-1                            
                RCHA =    32297547.8936                  RCHA =        4275.0000     RCH-1                            
                 CHD =           0.0000                   CHD =           0.0000     CHD-FROM-IBOUND                  

            TOTAL IN =    34320117.7908              TOTAL IN =       46214.7192

          OUT:                                     OUT:
          ----                                     ----
              STO-SS =    23126572.6866                STO-SS =           0.0000     STORAGE                          
              STO-SY =      849754.3320                STO-SY =           0.0000     STORAGE                          
                 WEL =           0.0000                   WEL =           0.0000     WEL-1                            
                RCHA =           0.0000                  RCHA =           0.0000     RCH-1                            
                 CHD =    10343795.5906                   CHD =       46214.7191     CHD-FROM-IBOUND                  

           TOTAL OUT =    34320122.6092             TOTAL OUT =       46214.7191

            IN - OUT =          -4.8184              IN - OUT =       1.1787E-04

 PERCENT DISCREPANCY =          -0.00     PERCENT DISCREPANCY =           0.00




         TIME SUMMARY AT END OF TIME STEP    5 IN STRESS PERIOD    9
                    SECONDS     MINUTES      HOURS       DAYS        YEARS
                    -----------------------------------------------------------
   TIME STEP LENGTH 3.36621E+05  5610.3      93.506      3.8961     1.06669E-02
 STRESS PERIOD TIME 1.20804E+06  20134.      335.57      13.982     3.82805E-02
         TOTAL TIME 1.96112E+07 3.26854E+05  5447.6      226.98     0.62144    


end timestep


start timestep kper="9" kstp="6" mode="normal"

 UBDSV1 SAVING     FLOW-JA-FACE ON UNIT   1015 AT TIME STEP      6, STRESS PERIOD      9
 UBDSV06 SAVING              WEL IN MODEL MUMODEL          PACKAGE MUMODEL         CONNECTED TO MODEL MUMODEL          PACKAGE WEL-1            ON UNIT   1015 AT TIME STEP      6, STRESS PERIOD      9
 UBDSV06 SAVING             RCHA IN MODEL MUMODEL          PACKAGE MUMODEL         CONNECTED TO MODEL MUMODEL          PACKAGE RCH-1            ON UNIT   1015 AT TIME STEP      6, STRESS PERIOD      9

 WEL PACKAGE (WEL-1) FLOW RATES   PERIOD      9   STEP        6
 -----------------------------------------------
   NUMBER   CELLID                    RATE      
 -----------------------------------------------
     1      (1,5,5)               0.0000000     
     2      (1,11,5)              0.0000000     
     3      (1,5,5)               0.0000000     
 -----------------------------------------------




 CHD PACKAGE (CHD-FROM-IBOUND) FLOW RATES   PERIOD      9   STEP        6
 -----------------------------------------------
   NUMBER   CELLID                    RATE      
 -----------------------------------------------
     1      (1,1,1)              -2564.2728     
     2      (1,1,2)              -2564.2750     
     3      (1,1,3)              -2564.2751     
     4      (1,1,4)              -2564.2738     
     5      (1,1,5)              -2564.2722     
     6      (1,1,6)              -2564.2708     
     7      (1,1,7)              -2564.2691     
     8      (1,1,8)              -2564.2669     
     9      (1,1,9)              -2564.2649     
     10     (1,21,1)             -2564.2653     
     11     (1,21,2)             -2564.2681     
     12     (1,21,3)             -2564.2707     
     13     (1,21,4)             -2564.2725     
     14     (1,21,5)             -2564.2742     
     15     (1,21,6)             -2564.2761     
     16     (1,21,7)             -2564.2775     
     17     (1,21,8)             -2564.2762     
     18     (1,21,9)             -2564.2722     
 -----------------------------------------------




 HEAD WILL BE SAVED ON UNIT 1016 AT END OF TIME STEP    6, STRESS PERIOD    9


  VOLUME BUDGET FOR ENTIRE MODEL AT END OF TIME STEP    6, STRESS PERIOD   9
  ---------------------------------------------------------------------------------------------------

     CUMULATIVE VOLUME      L**3       RATES FOR THIS TIME STEP      L**3/T          PACKAGE NAME    
     ------------------                 ------------------------                     ----------------

           IN:                                      IN:
           ---                                      ---
              STO-SS =     2137782.1744                STO-SS =       40376.2677     STORAGE                          
              STO-SY =       80597.5026                STO-SY =        1505.6259     STORAGE                          
                 WEL =           0.0000                   WEL =           0.0000     WEL-1                            
                RCHA =    32317534.7360                  RCHA =        4275.0000     RCH-1                            
                 CHD =           0.0000                   CHD =           0.0000     CHD-FROM-IBOUND                  

            TOTAL IN =    34535914.4130              TOTAL IN =       46156.8936

          OUT:                                     OUT:
          ----                                     ----
              STO-SS =    23126572.6866                STO-SS =           0.0000     STORAGE                          
              STO-SY =      849754.3320                STO-SY =           0.0000     STORAGE                          
                 WEL =           0.0000                   WEL =           0.0000     WEL-1                            
                RCHA =           0.0000                  RCHA =           0.0000     RCH-1                            
                 CHD =    10559592.2119                   CHD =       46156.8934     CHD-FROM-IBOUND                  

           TOTAL OUT =    34535919.2304             TOTAL OUT =       46156.8934

            IN - OUT =          -4.8175              IN - OUT =       1.9498E-04

 PERCENT DISCREPANCY =          -0.00     PERCENT DISCREPANCY =           0.00




         TIME SUMMARY AT END OF TIME STEP    6 IN STRESS PERIOD    9
                    SECONDS     MINUTES      HOURS       DAYS        YEARS
                    -----------------------------------------------------------
   TIME STEP LENGTH 4.03945E+05  6732.4      112.21      4.6753     1.28002E-02
 STRESS PERIOD TIME 1.61199E+06  26866.      447.77      18.657     5.10808E-02
         TOTAL TIME 2.00152E+07 3.33586E+05  5559.8      231.66     0.63424    


end timestep


start timestep kper="9" kstp="7" mode="normal"

 UBDSV1 SAVING     FLOW-JA-FACE ON UNIT   1015 AT TIME STEP      7, STRESS PERIOD      9
 UBDSV06 SAVING              WEL IN MODEL MUMODEL          PACKAGE MUMODEL         CONNECTED TO MODEL MUMODEL          PACKAGE WEL-1            ON UNIT   1015 AT TIME STEP      7, STRESS PERIOD      9
 UBDSV06 SAVING             RCHA IN MODEL MUMODEL          PACKAGE MUMODEL         CONNECTED TO MODEL MUMODEL          PACKAGE RCH-1            ON UNIT   1015 AT TIME STEP      7, STRESS PERIOD      9

 WEL PACKAGE (WEL-1) FLOW RATES   PERIOD      9   STEP        7
 -----------------------------------------------
   NUMBER   CELLID                    RATE      
 -----------------------------------------------
     1      (1,5,5)               0.0000000     
     2      (1,11,5)              0.0000000     
     3      (1,5,5)               0.0000000     
 -----------------------------------------------




 CHD PACKAGE (CHD-FROM-IBOUND) FLOW RATES   PERIOD      9   STEP        7
 -----------------------------------------------
   NUMBER   CELLID                    RATE      
 -----------------------------------------------
     1      (1,1,1)              -2560.4681     
     2      (1,1,2)              -2560.4703     
     3      (1,1,3)              -2560.4704     
     4      (1,1,4)              -2560.4691     
     5      (1,1,5)              -2560.4675     
     6      (1,1,6)              -2560.4661     
     7      (1,1,7)              -2560.4644     
     8      (1,1,8)              -2560.4622     
     9      (1,1,9)              -2560.4602     
     10     (1,21,1)             -2560.4607     
     11     (1,21,2)             -2560.4635     
     12     (1,21,3)             -2560.4660     
     13     (1,21,4)             -2560.4678     
     14     (1,21,5)             -2560.4695     
     15     (1,21,6)             -2560.4714     
     16     (1,21,7)             -2560.4727     
     17     (1,21,8)             -2560.4715     
     18     (1,21,9)             -2560.4675     
 -----------------------------------------------




 HEAD WILL BE SAVED ON UNIT 1016 AT END OF TIME STEP    7, STRESS PERIOD    9


  VOLUME BUDGET FOR ENTIRE MODEL AT END OF TIME STEP    7, STRESS PERIOD   9
  ---------------------------------------------------------------------------------------------------

     CUMULATIVE VOLUME      L**3       RATES FOR THIS TIME STEP      L**3/T          PACKAGE NAME    
     ------------------                 ------------------------                     ----------------

           IN:                                      IN:
           ---                                      ---
              STO-SS =     2363938.7934                STO-SS =       40310.6673     STORAGE                          
              STO-SY =       89028.3982                STO-SY =        1502.7419     STORAGE                          
                 WEL =           0.0000                   WEL =           0.0000     WEL-1                            
                RCHA =    32341518.9469                  RCHA =        4275.0000     RCH-1                            
                 CHD =           0.0000                   CHD =           0.0000     CHD-FROM-IBOUND                  

            TOTAL IN =    34794486.1385              TOTAL IN =       46088.4092

          OUT:                                     OUT:
          ----                                     ----
              STO-SS =    23126572.6866                STO-SS =           0.0000     STORAGE                          
              STO-SY =      849754.3320                STO-SY =           0.0000     STORAGE                          
                 WEL =           0.0000                   WEL =           0.0000     WEL-1                            
                RCHA =           0.0000                  RCHA =           0.0000     RCH-1                            
                 CHD =    10818163.9356                   CHD =       46088.4089     CHD-FROM-IBOUND                  

           TOTAL OUT =    34794490.9542             TOTAL OUT =       46088.4089

            IN - OUT =          -4.8157              IN - OUT =       3.2359E-04

 PERCENT DISCREPANCY =          -0.00     PERCENT DISCREPANCY =           0.00




         TIME SUMMARY AT END OF TIME STEP    7 IN STRESS PERIOD    9
                    SECONDS     MINUTES      HOURS       DAYS        YEARS
                    -----------------------------------------------------------
   TIME STEP LENGTH 4.84734E+05  8078.9      134.65      5.6103     1.53603E-02
 STRESS PERIOD TIME 2.09672E+06  34945.      582.42      24.268     6.64410E-02
         TOTAL TIME 2.04999E+07 3.41665E+05  5694.4      237.27     0.64960    


end timestep


start timestep kper="9" kstp="8" mode="normal"

 UBDSV1 SAVING     FLOW-JA-FACE ON UNIT   1015 AT TIME STEP      8, STRESS PERIOD      9
 UBDSV06 SAVING              WEL IN MODEL MUMODEL          PACKAGE MUMODEL         CONNECTED TO MODEL MUMODEL          PACKAGE WEL-1            ON UNIT   1015 AT TIME STEP      8, STRESS PERIOD      9
 UBDSV06 SAVING             RCHA IN MODEL MUMODEL          PACKAGE MUMODEL         CONNECTED TO MODEL MUMODEL          PACKAGE RCH-1            ON UNIT   1015 AT TIME STEP      8, STRESS PERIOD      9

 WEL PACKAGE (WEL-1) FLOW RATES   PERIOD      9   STEP        8
 -----------------------------------------------
   NUMBER   CELLID                    RATE      
 -----------------------------------------------
     1      (1,5,5)               0.0000000     
     2      (1,11,5)              0.0000000     
     3      (1,5,5)               0.0000000     
 -----------------------------------------------




 CHD PACKAGE (CHD-FROM-IBOUND) FLOW RATES   PERIOD      9   STEP        8
 -----------------------------------------------
   NUMBER   CELLID                    RATE      
 -----------------------------------------------
     1      (1,1,1)              -2555.9731     
     2      (1,1,2)              -2555.9752     
     3      (1,1,3)              -2555.9753     
     4      (1,1,4)              -2555.9740     
     5      (1,1,5)              -2555.9725     
     6      (1,1,6)              -2555.9711     
     7      (1,1,7)              -2555.9694     
     8      (1,1,8)              -2555.9672     
     9      (1,1,9)              -2555.9652     
     10     (1,21,1)             -2555.9657     
     11     (1,21,2)             -2555.9685     
     12     (1,21,3)             -2555.9710     
     13     (1,21,4)             -2555.9728     
     14     (1,21,5)             -2555.9744     
     15     (1,21,6)             -2555.9763     
     16     (1,21,7)             -2555.9776     
     17     (1,21,8)             -2555.9763     
     18     (1,21,9)             -2555.9724     
 -----------------------------------------------




 HEAD WILL BE SAVED ON UNIT 1016 AT END OF TIME STEP    8, STRESS PERIOD    9


  VOLUME BUDGET FOR ENTIRE MODEL AT END OF TIME STEP    8, STRESS PERIOD   9
  ---------------------------------------------------------------------------------------------------

     CUMULATIVE VOLUME      L**3       RATES FOR THIS TIME STEP      L**3/T          PACKAGE NAME    
     ------------------                 ------------------------                     ----------------

           IN:                                      IN:
           ---                                      ---
              STO-SS =     2634804.9311                STO-SS =       40233.1609     STORAGE                          
              STO-SY =       99122.5558                STO-SY =        1499.3379     STORAGE                          
                 WEL =           0.0000                   WEL =           0.0000     WEL-1                            
                RCHA =    32370300.0000                  RCHA =        4275.0000     RCH-1                            
                 CHD =           0.0000                   CHD =           0.0000     CHD-FROM-IBOUND                  

            TOTAL IN =    35104227.4869              TOTAL IN =       46007.4988

          OUT:                                     OUT:
          ----                                     ----
              STO-SS =    23126572.6866                STO-SS =           0.0000     STORAGE                          
              STO-SY =      849754.3320                STO-SY =           0.0000     STORAGE                          
                 WEL =           0.0000                   WEL =           0.0000     WEL-1                            
                RCHA =           0.0000                  RCHA =           0.0000     RCH-1                            
                 CHD =    11127905.2805                   CHD =       46007.4982     CHD-FROM-IBOUND                  

           TOTAL OUT =    35104232.2990             TOTAL OUT =       46007.4982

            IN - OUT =          -4.8121              IN - OUT =       5.3157E-04

 PERCENT DISCREPANCY =          -0.00     PERCENT DISCREPANCY =           0.00




         TIME SUMMARY AT END OF TIME STEP    8 IN STRESS PERIOD    9
                    SECONDS     MINUTES      HOURS       DAYS        YEARS
                    -----------------------------------------------------------
   TIME STEP LENGTH 5.81680E+05  9694.7      161.58      6.7324     1.84323E-02
 STRESS PERIOD TIME 2.67840E+06  44640.      744.00      31.000     8.48734E-02
         TOTAL TIME 2.10816E+07 3.51360E+05  5856.0      244.00     0.66804    


end timestep


start timestep kper="10" kstp="1" mode="normal"


 OUTPUT CONTROL FOR STRESS PERIOD 10 IS REPEATED USING SETTINGS FROM A PREVIOUS STRESS PERIOD.


 STRESS PERIOD 10 IS TRANSIENT


 REUSING WELS FROM LAST STRESS PERIOD

 REUSING RCHS FROM LAST STRESS PERIOD

 REUSING CHDS FROM LAST STRESS PERIOD
 UBDSV1 SAVING     FLOW-JA-FACE ON UNIT   1015 AT TIME STEP      1, STRESS PERIOD     10
 UBDSV06 SAVING              WEL IN MODEL MUMODEL          PACKAGE MUMODEL         CONNECTED TO MODEL MUMODEL          PACKAGE WEL-1            ON UNIT   1015 AT TIME STEP      1, STRESS PERIOD     10
 UBDSV06 SAVING             RCHA IN MODEL MUMODEL          PACKAGE MUMODEL         CONNECTED TO MODEL MUMODEL          PACKAGE RCH-1            ON UNIT   1015 AT TIME STEP      1, STRESS PERIOD     10

 WEL PACKAGE (WEL-1) FLOW RATES   PERIOD     10   STEP        1
 -----------------------------------------------
   NUMBER   CELLID                    RATE      
 -----------------------------------------------
     1      (1,5,5)               0.0000000     
     2      (1,11,5)              0.0000000     
     3      (1,5,5)               0.0000000     
 -----------------------------------------------




 CHD PACKAGE (CHD-FROM-IBOUND) FLOW RATES   PERIOD     10   STEP        1
 -----------------------------------------------
   NUMBER   CELLID                    RATE      
 -----------------------------------------------
     1      (1,1,1)              -2554.7641     
     2      (1,1,2)              -2554.7662     
     3      (1,1,3)              -2554.7663     
     4      (1,1,4)              -2554.7650     
     5      (1,1,5)              -2554.7635     
     6      (1,1,6)              -2554.7621     
     7      (1,1,7)              -2554.7604     
     8      (1,1,8)              -2554.7583     
     9      (1,1,9)              -2554.7563     
     10     (1,21,1)             -2554.7568     
     11     (1,21,2)             -2554.7595     
     12     (1,21,3)             -2554.7620     
     13     (1,21,4)             -2554.7638     
     14     (1,21,5)             -2554.7655     
     15     (1,21,6)             -2554.7673     
     16     (1,21,7)             -2554.7686     
     17     (1,21,8)             -2554.7673     
     18     (1,21,9)             -2554.7634     
 -----------------------------------------------




 HEAD WILL BE SAVED ON UNIT 1016 AT END OF TIME STEP    1, STRESS PERIOD   10


  VOLUME BUDGET FOR ENTIRE MODEL AT END OF TIME STEP    1, STRESS PERIOD  10
  ---------------------------------------------------------------------------------------------------

     CUMULATIVE VOLUME      L**3       RATES FOR THIS TIME STEP      L**3/T          PACKAGE NAME    
     ------------------                 ------------------------                     ----------------

           IN:                                      IN:
           ---                                      ---
              STO-SS =     2707922.1847                STO-SS =       40212.2589     STORAGE                          
              STO-SY =      101847.2113                STO-SY =        1498.4774     STORAGE                          
                 WEL =           0.0000                   WEL =           0.0000     WEL-1                            
                RCHA =    32378073.1584                  RCHA =        4275.0000     RCH-1                            
                 CHD =           0.0000                   CHD =           0.0000     CHD-FROM-IBOUND                  

            TOTAL IN =    35187842.5544              TOTAL IN =       45985.7363

          OUT:                                     OUT:
          ----                                     ----
              STO-SS =    23126572.6866                STO-SS =           0.0000     STORAGE                          
              STO-SY =      849754.3320                STO-SY =           0.0000     STORAGE                          
                 WEL =           0.0000                   WEL =           0.0000     WEL-1                            
                RCHA =           0.0000                  RCHA =           0.0000     RCH-1                            
                 CHD =    11211520.3479                   CHD =       45985.7363     CHD-FROM-IBOUND                  

           TOTAL OUT =    35187847.3665             TOTAL OUT =       45985.7363

            IN - OUT =          -4.8121              IN - OUT =       1.4163E-05

 PERCENT DISCREPANCY =          -0.00     PERCENT DISCREPANCY =           0.00




         TIME SUMMARY AT END OF TIME STEP    1 IN STRESS PERIOD   10
                    SECONDS     MINUTES      HOURS       DAYS        YEARS
                    -----------------------------------------------------------
   TIME STEP LENGTH 1.57100E+05  2618.3      43.639      1.8183     4.97819E-03
 STRESS PERIOD TIME 1.57100E+05  2618.3      43.639      1.8183     4.97819E-03
         TOTAL TIME 2.12387E+07 3.53978E+05  5899.6      245.82     0.67301    


end timestep


start timestep kper="10" kstp="2" mode="normal"

 UBDSV1 SAVING     FLOW-JA-FACE ON UNIT   1015 AT TIME STEP      2, STRESS PERIOD     10
 UBDSV06 SAVING              WEL IN MODEL MUMODEL          PACKAGE MUMODEL         CONNECTED TO MODEL MUMODEL          PACKAGE WEL-1            ON UNIT   1015 AT TIME STEP      2, STRESS PERIOD     10
 UBDSV06 SAVING             RCHA IN MODEL MUMODEL          PACKAGE MUMODEL         CONNECTED TO MODEL MUMODEL          PACKAGE RCH-1            ON UNIT   1015 AT TIME STEP      2, STRESS PERIOD     10

 WEL PACKAGE (WEL-1) FLOW RATES   PERIOD     10   STEP        2
 -----------------------------------------------
   NUMBER   CELLID                    RATE      
 -----------------------------------------------
     1      (1,5,5)               0.0000000     
     2      (1,11,5)              0.0000000     
     3      (1,5,5)               0.0000000     
 -----------------------------------------------




 CHD PACKAGE (CHD-FROM-IBOUND) FLOW RATES   PERIOD     10   STEP        2
 -----------------------------------------------
   NUMBER   CELLID                    RATE      
 -----------------------------------------------
     1      (1,1,1)              -2553.3207     
     2      (1,1,2)              -2553.3228     
     3      (1,1,3)              -2553.3229     
     4      (1,1,4)              -2553.3216     
     5      (1,1,5)              -2553.3201     
     6      (1,1,6)              -2553.3187     
     7      (1,1,7)              -2553.3170     
     8      (1,1,8)              -2553.3149     
     9      (1,1,9)              -2553.3129     
     10     (1,21,1)             -2553.3134     
     11     (1,21,2)             -2553.3161     
     12     (1,21,3)             -2553.3186     
     13     (1,21,4)             -2553.3204     
     14     (1,21,5)             -2553.3220     
     15     (1,21,6)             -2553.3239     
     16     (1,21,7)             -2553.3251     
     17     (1,21,8)             -2553.3239     
     18     (1,21,9)             -2553.3200     
 -----------------------------------------------




 HEAD WILL BE SAVED ON UNIT 1016 AT END OF TIME STEP    2, STRESS PERIOD   10


  VOLUME BUDGET FOR ENTIRE MODEL AT END OF TIME STEP    2, STRESS PERIOD  10
  ---------------------------------------------------------------------------------------------------

     CUMULATIVE VOLUME      L**3       RATES FOR THIS TIME STEP      L**3/T          PACKAGE NAME    
     ------------------                 ------------------------                     ----------------

           IN:                                      IN:
           ---                                      ---
              STO-SS =     2795608.5839                STO-SS =       40187.3704     STORAGE                          
              STO-SY =      105114.4137                STO-SY =        1497.3847     STORAGE                          
                 WEL =           0.0000                   WEL =           0.0000     WEL-1                            
                RCHA =    32387400.9485                  RCHA =        4275.0000     RCH-1                            
                 CHD =           0.0000                   CHD =           0.0000     CHD-FROM-IBOUND                  

            TOTAL IN =    35288123.9460              TOTAL IN =       45959.7551

          OUT:                                     OUT:
          ----                                     ----
              STO-SS =    23126572.6866                STO-SS =           0.0000     STORAGE                          
              STO-SY =      849754.3320                STO-SY =           0.0000     STORAGE                          
                 WEL =           0.0000                   WEL =           0.0000     WEL-1                            
                RCHA =           0.0000                  RCHA =           0.0000     RCH-1                            
                 CHD =    11311801.7395                   CHD =       45959.7551     CHD-FROM-IBOUND                  

           TOTAL OUT =    35288128.7581             TOTAL OUT =       45959.7551

            IN - OUT =          -4.8120              IN - OUT =       2.2079E-05

 PERCENT DISCREPANCY =          -0.00     PERCENT DISCREPANCY =           0.00




         TIME SUMMARY AT END OF TIME STEP    2 IN STRESS PERIOD   10
                    SECONDS     MINUTES      HOURS       DAYS        YEARS
                    -----------------------------------------------------------
   TIME STEP LENGTH 1.88520E+05  3142.0      52.367      2.1819     5.97382E-03
 STRESS PERIOD TIME 3.45619E+05  5760.3      96.005      4.0002     1.09520E-02
         TOTAL TIME 2.14272E+07 3.57120E+05  5952.0      248.00     0.67899    


end timestep


start timestep kper="10" kstp="3" mode="normal"

 UBDSV1 SAVING     FLOW-JA-FACE ON UNIT   1015 AT TIME STEP      3, STRESS PERIOD     10
 UBDSV06 SAVING              WEL IN MODEL MUMODEL          PACKAGE MUMODEL         CONNECTED TO MODEL MUMODEL          PACKAGE WEL-1            ON UNIT   1015 AT TIME STEP      3, STRESS PERIOD     10
 UBDSV06 SAVING             RCHA IN MODEL MUMODEL          PACKAGE MUMODEL         CONNECTED TO MODEL MUMODEL          PACKAGE RCH-1            ON UNIT   1015 AT TIME STEP      3, STRESS PERIOD     10

 WEL PACKAGE (WEL-1) FLOW RATES   PERIOD     10   STEP        3
 -----------------------------------------------
   NUMBER   CELLID                    RATE      
 -----------------------------------------------
     1      (1,5,5)               0.0000000     
     2      (1,11,5)              0.0000000     
     3      (1,5,5)               0.0000000     
 -----------------------------------------------




 CHD PACKAGE (CHD-FROM-IBOUND) FLOW RATES   PERIOD     10   STEP        3
 -----------------------------------------------
   NUMBER   CELLID                    RATE      
 -----------------------------------------------
     1      (1,1,1)              -2551.5990     
     2      (1,1,2)              -2551.6011     
     3      (1,1,3)              -2551.6012     
     4      (1,1,4)              -2551.5999     
     5      (1,1,5)              -2551.5984     
     6      (1,1,6)              -2551.5970     
     7      (1,1,7)              -2551.5953     
     8      (1,1,8)              -2551.5932     
     9      (1,1,9)              -2551.5912     
     10     (1,21,1)             -2551.5917     
     11     (1,21,2)             -2551.5945     
     12     (1,21,3)             -2551.5969     
     13     (1,21,4)             -2551.5987     
     14     (1,21,5)             -2551.6004     
     15     (1,21,6)             -2551.6022     
     16     (1,21,7)             -2551.6034     
     17     (1,21,8)             -2551.6022     
     18     (1,21,9)             -2551.5984     
 -----------------------------------------------




 HEAD WILL BE SAVED ON UNIT 1016 AT END OF TIME STEP    3, STRESS PERIOD   10


  VOLUME BUDGET FOR ENTIRE MODEL AT END OF TIME STEP    3, STRESS PERIOD  10
  ---------------------------------------------------------------------------------------------------

     CUMULATIVE VOLUME      L**3       RATES FOR THIS TIME STEP      L**3/T          PACKAGE NAME    
     ------------------                 ------------------------                     ----------------

           IN:                                      IN:
           ---                                      ---
              STO-SS =     2900754.5318                STO-SS =       40157.6831     STORAGE                          
              STO-SY =      109031.6451                STO-SY =        1496.0818     STORAGE                          
                 WEL =           0.0000                   WEL =           0.0000     WEL-1                            
                RCHA =    32398594.2967                  RCHA =        4275.0000     RCH-1                            
                 CHD =           0.0000                   CHD =           0.0000     CHD-FROM-IBOUND                  

            TOTAL IN =    35408380.4735              TOTAL IN =       45928.7649

          OUT:                                     OUT:
          ----                                     ----
              STO-SS =    23126572.6866                STO-SS =           0.0000     STORAGE                          
              STO-SY =      849754.3320                STO-SY =           0.0000     STORAGE                          
                 WEL =           0.0000                   WEL =           0.0000     WEL-1                            
                RCHA =           0.0000                  RCHA =           0.0000     RCH-1                            
                 CHD =    11432058.2669                   CHD =       45928.7649     CHD-FROM-IBOUND                  

           TOTAL OUT =    35408385.2854             TOTAL OUT =       45928.7649

            IN - OUT =          -4.8119              IN - OUT =       3.3688E-05

 PERCENT DISCREPANCY =          -0.00     PERCENT DISCREPANCY =           0.00




         TIME SUMMARY AT END OF TIME STEP    3 IN STRESS PERIOD   10
                    SECONDS     MINUTES      HOURS       DAYS        YEARS
                    -----------------------------------------------------------
   TIME STEP LENGTH 2.26223E+05  3770.4      62.840      2.6183     7.16859E-03
 STRESS PERIOD TIME 5.71843E+05  9530.7      158.85      6.6185     1.81206E-02
         TOTAL TIME 2.16534E+07 3.60891E+05  6014.8      250.62     0.68616    


end timestep


start timestep kper="10" kstp="4" mode="normal"

 UBDSV1 SAVING     FLOW-JA-FACE ON UNIT   1015 AT TIME STEP      4, STRESS PERIOD     10
 UBDSV06 SAVING              WEL IN MODEL MUMODEL          PACKAGE MUMODEL         CONNECTED TO MODEL MUMODEL          PACKAGE WEL-1            ON UNIT   1015 AT TIME STEP      4, STRESS PERIOD     10
 UBDSV06 SAVING             RCHA IN MODEL MUMODEL          PACKAGE MUMODEL         CONNECTED TO MODEL MUMODEL          PACKAGE RCH-1            ON UNIT   1015 AT TIME STEP      4, STRESS PERIOD     10

 WEL PACKAGE (WEL-1) FLOW RATES   PERIOD     10   STEP        4
 -----------------------------------------------
   NUMBER   CELLID                    RATE      
 -----------------------------------------------
     1      (1,5,5)               0.0000000     
     2      (1,11,5)              0.0000000     
     3      (1,5,5)               0.0000000     
 -----------------------------------------------




 CHD PACKAGE (CHD-FROM-IBOUND) FLOW RATES   PERIOD     10   STEP        4
 -----------------------------------------------
   NUMBER   CELLID                    RATE      
 -----------------------------------------------
     1      (1,1,1)              -2549.5478     
     2      (1,1,2)              -2549.5498     
     3      (1,1,3)              -2549.5500     
     4      (1,1,4)              -2549.5487     
     5      (1,1,5)              -2549.5472     
     6      (1,1,6)              -2549.5458     
     7      (1,1,7)              -2549.5441     
     8      (1,1,8)              -2549.5420     
     9      (1,1,9)              -2549.5400     
     10     (1,21,1)             -2549.5406     
     11     (1,21,2)             -2549.5433     
     12     (1,21,3)             -2549.5457     
     13     (1,21,4)             -2549.5475     
     14     (1,21,5)             -2549.5491     
     15     (1,21,6)             -2549.5510     
     16     (1,21,7)             -2549.5522     
     17     (1,21,8)             -2549.5509     
     18     (1,21,9)             -2549.5472     
 -----------------------------------------------




 HEAD WILL BE SAVED ON UNIT 1016 AT END OF TIME STEP    4, STRESS PERIOD   10


  VOLUME BUDGET FOR ENTIRE MODEL AT END OF TIME STEP    4, STRESS PERIOD  10
  ---------------------------------------------------------------------------------------------------

     CUMULATIVE VOLUME      L**3       RATES FOR THIS TIME STEP      L**3/T          PACKAGE NAME    
     ------------------                 ------------------------                     ----------------

           IN:                                      IN:
           ---                                      ---
              STO-SS =     3026818.5358                STO-SS =       40122.3128     STORAGE                          
              STO-SY =      113727.4479                STO-SY =        1494.5303     STORAGE                          
                 WEL =           0.0000                   WEL =           0.0000     WEL-1                            
                RCHA =    32412026.3144                  RCHA =        4275.0000     RCH-1                            
                 CHD =           0.0000                   CHD =           0.0000     CHD-FROM-IBOUND                  

            TOTAL IN =    35552572.2982              TOTAL IN =       45891.8430

          OUT:                                     OUT:
          ----                                     ----
              STO-SS =    23126572.6866                STO-SS =           0.0000     STORAGE                          
              STO-SY =      849754.3320                STO-SY =           0.0000     STORAGE                          
                 WEL =           0.0000                   WEL =           0.0000     WEL-1                            
                RCHA =           0.0000                  RCHA =           0.0000     RCH-1                            
                 CHD =    11576250.0913                   CHD =       45891.8430     CHD-FROM-IBOUND                  

           TOTAL OUT =    35552577.1099             TOTAL OUT =       45891.8430

            IN - OUT =          -4.8118              IN - OUT =       5.3609E-05

 PERCENT DISCREPANCY =          -0.00     PERCENT DISCREPANCY =           0.00




         TIME SUMMARY AT END OF TIME STEP    4 IN STRESS PERIOD   10
                    SECONDS     MINUTES      HOURS       DAYS        YEARS
                    -----------------------------------------------------------
   TIME STEP LENGTH 2.71468E+05  4524.5      75.408      3.1420     8.60231E-03
 STRESS PERIOD TIME 8.43311E+05  14055.      234.25      9.7605     2.67229E-02
         TOTAL TIME 2.19249E+07 3.65415E+05  6090.3      253.76     0.69476    


end timestep


start timestep kper="10" kstp="5" mode="normal"

 UBDSV1 SAVING     FLOW-JA-FACE ON UNIT   1015 AT TIME STEP      5, STRESS PERIOD     10
 UBDSV06 SAVING              WEL IN MODEL MUMODEL          PACKAGE MUMODEL         CONNECTED TO MODEL MUMODEL          PACKAGE WEL-1            ON UNIT   1015 AT TIME STEP      5, STRESS PERIOD     10
 UBDSV06 SAVING             RCHA IN MODEL MUMODEL          PACKAGE MUMODEL         CONNECTED TO MODEL MUMODEL          PACKAGE RCH-1            ON UNIT   1015 AT TIME STEP      5, STRESS PERIOD     10

 WEL PACKAGE (WEL-1) FLOW RATES   PERIOD     10   STEP        5
 -----------------------------------------------
   NUMBER   CELLID                    RATE      
 -----------------------------------------------
     1      (1,5,5)               0.0000000     
     2      (1,11,5)              0.0000000     
     3      (1,5,5)               0.0000000     
 -----------------------------------------------




 CHD PACKAGE (CHD-FROM-IBOUND) FLOW RATES   PERIOD     10   STEP        5
 -----------------------------------------------
   NUMBER   CELLID                    RATE      
 -----------------------------------------------
     1      (1,1,1)              -2547.1073     
     2      (1,1,2)              -2547.1093     
     3      (1,1,3)              -2547.1095     
     4      (1,1,4)              -2547.1082     
     5      (1,1,5)              -2547.1067     
     6      (1,1,6)              -2547.1053     
     7      (1,1,7)              -2547.1037     
     8      (1,1,8)              -2547.1016     
     9      (1,1,9)              -2547.0996     
     10     (1,21,1)             -2547.1002     
     11     (1,21,2)             -2547.1028     
     12     (1,21,3)             -2547.1053     
     13     (1,21,4)             -2547.1070     
     14     (1,21,5)             -2547.1087     
     15     (1,21,6)             -2547.1105     
     16     (1,21,7)             -2547.1117     
     17     (1,21,8)             -2547.1104     
     18     (1,21,9)             -2547.1067     
 -----------------------------------------------




 HEAD WILL BE SAVED ON UNIT 1016 AT END OF TIME STEP    5, STRESS PERIOD   10


  VOLUME BUDGET FOR ENTIRE MODEL AT END OF TIME STEP    5, STRESS PERIOD  10
  ---------------------------------------------------------------------------------------------------

     CUMULATIVE VOLUME      L**3       RATES FOR THIS TIME STEP      L**3/T          PACKAGE NAME    
     ------------------                 ------------------------                     ----------------

           IN:                                      IN:
           ---                                      ---
              STO-SS =     3177936.6697                STO-SS =       40080.2293     STORAGE                          
              STO-SY =      119355.4551                STO-SY =        1492.6853     STORAGE                          
                 WEL =           0.0000                   WEL =           0.0000     WEL-1                            
                RCHA =    32428144.7357                  RCHA =        4275.0000     RCH-1                            
                 CHD =           0.0000                   CHD =           0.0000     CHD-FROM-IBOUND                  

            TOTAL IN =    35725436.8605              TOTAL IN =       45847.9146

          OUT:                                     OUT:
          ----                                     ----
              STO-SS =    23126572.6866                STO-SS =           0.0000     STORAGE                          
              STO-SY =      849754.3320                STO-SY =           0.0000     STORAGE                          
                 WEL =           0.0000                   WEL =           0.0000     WEL-1                            
                RCHA =           0.0000                  RCHA =           0.0000     RCH-1                            
                 CHD =    11749114.6534                   CHD =       45847.9145     CHD-FROM-IBOUND                  

           TOTAL OUT =    35725441.6719             TOTAL OUT =       45847.9145

            IN - OUT =          -4.8114              IN - OUT =       9.2937E-05

 PERCENT DISCREPANCY =          -0.00     PERCENT DISCREPANCY =           0.00




         TIME SUMMARY AT END OF TIME STEP    5 IN STRESS PERIOD   10
                    SECONDS     MINUTES      HOURS       DAYS        YEARS
                    -----------------------------------------------------------
   TIME STEP LENGTH 3.25762E+05  5429.4      90.489      3.7704     1.03228E-02
 STRESS PERIOD TIME 1.16907E+06  19485.      324.74      13.531     3.70457E-02
         TOTAL TIME 2.22507E+07 3.70845E+05  6180.7      257.53     0.70508    


end timestep


start timestep kper="10" kstp="6" mode="normal"

 UBDSV1 SAVING     FLOW-JA-FACE ON UNIT   1015 AT TIME STEP      6, STRESS PERIOD     10
 UBDSV06 SAVING              WEL IN MODEL MUMODEL          PACKAGE MUMODEL         CONNECTED TO MODEL MUMODEL          PACKAGE WEL-1            ON UNIT   1015 AT TIME STEP      6, STRESS PERIOD     10
 UBDSV06 SAVING             RCHA IN MODEL MUMODEL          PACKAGE MUMODEL         CONNECTED TO MODEL MUMODEL          PACKAGE RCH-1            ON UNIT   1015 AT TIME STEP      6, STRESS PERIOD     10

 WEL PACKAGE (WEL-1) FLOW RATES   PERIOD     10   STEP        6
 -----------------------------------------------
   NUMBER   CELLID                    RATE      
 -----------------------------------------------
     1      (1,5,5)               0.0000000     
     2      (1,11,5)              0.0000000     
     3      (1,5,5)               0.0000000     
 -----------------------------------------------




 CHD PACKAGE (CHD-FROM-IBOUND) FLOW RATES   PERIOD     10   STEP        6
 -----------------------------------------------
   NUMBER   CELLID                    RATE      
 -----------------------------------------------
     1      (1,1,1)              -2544.2085     
     2      (1,1,2)              -2544.2104     
     3      (1,1,3)              -2544.2106     
     4      (1,1,4)              -2544.2094     
     5      (1,1,5)              -2544.2079     
     6      (1,1,6)              -2544.2065     
     7      (1,1,7)              -2544.2048     
     8      (1,1,8)              -2544.2027     
     9      (1,1,9)              -2544.2008     
     10     (1,21,1)             -2544.2014     
     11     (1,21,2)             -2544.2040     
     12     (1,21,3)             -2544.2064     
     13     (1,21,4)             -2544.2082     
     14     (1,21,5)             -2544.2098     
     15     (1,21,6)             -2544.2116     
     16     (1,21,7)             -2544.2128     
     17     (1,21,8)             -2544.2115     
     18     (1,21,9)             -2544.2078     
 -----------------------------------------------




 HEAD WILL BE SAVED ON UNIT 1016 AT END OF TIME STEP    6, STRESS PERIOD   10


  VOLUME BUDGET FOR ENTIRE MODEL AT END OF TIME STEP    6, STRESS PERIOD  10
  ---------------------------------------------------------------------------------------------------

     CUMULATIVE VOLUME      L**3       RATES FOR THIS TIME STEP      L**3/T          PACKAGE NAME    
     ------------------                 ------------------------                     ----------------

           IN:                                      IN:
           ---                                      ---
              STO-SS =     3359052.2550                STO-SS =       40030.2399     STORAGE                          
              STO-SY =      126099.1550                STO-SY =        1490.4953     STORAGE                          
                 WEL =           0.0000                   WEL =           0.0000     WEL-1                            
                RCHA =    32447486.8413                  RCHA =        4275.0000     RCH-1                            
                 CHD =           0.0000                   CHD =           0.0000     CHD-FROM-IBOUND                  

            TOTAL IN =    35932638.2513              TOTAL IN =       45795.7352

          OUT:                                     OUT:
          ----                                     ----
              STO-SS =    23126572.6866                STO-SS =           0.0000     STORAGE                          
              STO-SY =      849754.3320                STO-SY =           0.0000     STORAGE                          
                 WEL =           0.0000                   WEL =           0.0000     WEL-1                            
                RCHA =           0.0000                  RCHA =           0.0000     RCH-1                            
                 CHD =    11956316.0434                   CHD =       45795.7351     CHD-FROM-IBOUND                  

           TOTAL OUT =    35932643.0620             TOTAL OUT =       45795.7351

            IN - OUT =          -4.8107              IN - OUT =       1.5075E-04

 PERCENT DISCREPANCY =          -0.00     PERCENT DISCREPANCY =           0.00




         TIME SUMMARY AT END OF TIME STEP    6 IN STRESS PERIOD   10
                    SECONDS     MINUTES      HOURS       DAYS        YEARS
                    -----------------------------------------------------------
   TIME STEP LENGTH 3.90914E+05  6515.2      108.59      4.5245     1.23873E-02
 STRESS PERIOD TIME 1.55999E+06  26000.      433.33      18.055     4.94330E-02
         TOTAL TIME 2.26416E+07 3.77360E+05  6289.3      262.06     0.71747    


end timestep


start timestep kper="10" kstp="7" mode="normal"

 UBDSV1 SAVING     FLOW-JA-FACE ON UNIT   1015 AT TIME STEP      7, STRESS PERIOD     10
 UBDSV06 SAVING              WEL IN MODEL MUMODEL          PACKAGE MUMODEL         CONNECTED TO MODEL MUMODEL          PACKAGE WEL-1            ON UNIT   1015 AT TIME STEP      7, STRESS PERIOD     10
 UBDSV06 SAVING             RCHA IN MODEL MUMODEL          PACKAGE MUMODEL         CONNECTED TO MODEL MUMODEL          PACKAGE RCH-1            ON UNIT   1015 AT TIME STEP      7, STRESS PERIOD     10

 WEL PACKAGE (WEL-1) FLOW RATES   PERIOD     10   STEP        7
 -----------------------------------------------
   NUMBER   CELLID                    RATE      
 -----------------------------------------------
     1      (1,5,5)               0.0000000     
     2      (1,11,5)              0.0000000     
     3      (1,5,5)               0.0000000     
 -----------------------------------------------




 CHD PACKAGE (CHD-FROM-IBOUND) FLOW RATES   PERIOD     10   STEP        7
 -----------------------------------------------
   NUMBER   CELLID                    RATE      
 -----------------------------------------------
     1      (1,1,1)              -2540.7717     
     2      (1,1,2)              -2540.7737     
     3      (1,1,3)              -2540.7738     
     4      (1,1,4)              -2540.7726     
     5      (1,1,5)              -2540.7711     
     6      (1,1,6)              -2540.7697     
     7      (1,1,7)              -2540.7681     
     8      (1,1,8)              -2540.7660     
     9      (1,1,9)              -2540.7641     
     10     (1,21,1)             -2540.7647     
     11     (1,21,2)             -2540.7673     
     12     (1,21,3)             -2540.7697     
     13     (1,21,4)             -2540.7714     
     14     (1,21,5)             -2540.7731     
     15     (1,21,6)             -2540.7749     
     16     (1,21,7)             -2540.7760     
     17     (1,21,8)             -2540.7747     
     18     (1,21,9)             -2540.7711     
 -----------------------------------------------




 HEAD WILL BE SAVED ON UNIT 1016 AT END OF TIME STEP    7, STRESS PERIOD   10


  VOLUME BUDGET FOR ENTIRE MODEL AT END OF TIME STEP    7, STRESS PERIOD  10
  ---------------------------------------------------------------------------------------------------

     CUMULATIVE VOLUME      L**3       RATES FOR THIS TIME STEP      L**3/T          PACKAGE NAME    
     ------------------                 ------------------------                     ----------------

           IN:                                      IN:
           ---                                      ---
              STO-SS =     3576069.1745                STO-SS =       39970.9728     STORAGE                          
              STO-SY =      134177.5096                STO-SY =        1487.9010     STORAGE                          
                 WEL =           0.0000                   WEL =           0.0000     WEL-1                            
                RCHA =    32470697.3680                  RCHA =        4275.0000     RCH-1                            
                 CHD =           0.0000                   CHD =           0.0000     CHD-FROM-IBOUND                  

            TOTAL IN =    36180944.0521              TOTAL IN =       45733.8738

          OUT:                                     OUT:
          ----                                     ----
              STO-SS =    23126572.6866                STO-SS =           0.0000     STORAGE                          
              STO-SY =      849754.3320                STO-SY =           0.0000     STORAGE                          
                 WEL =           0.0000                   WEL =           0.0000     WEL-1                            
                RCHA =           0.0000                  RCHA =           0.0000     RCH-1                            
                 CHD =    12204621.8429                   CHD =       45733.8736     CHD-FROM-IBOUND                  

           TOTAL OUT =    36180948.8614             TOTAL OUT =       45733.8736

            IN - OUT =          -4.8094              IN - OUT =       2.5081E-04

 PERCENT DISCREPANCY =          -0.00     PERCENT DISCREPANCY =           0.00




         TIME SUMMARY AT END OF TIME STEP    7 IN STRESS PERIOD   10
                    SECONDS     MINUTES      HOURS       DAYS        YEARS
                    -----------------------------------------------------------
   TIME STEP LENGTH 4.69097E+05  7818.3      130.30      5.4294     1.48648E-02
 STRESS PERIOD TIME 2.02908E+06  33818.      563.63      23.485     6.42978E-02
         TOTAL TIME 2.31107E+07 3.85178E+05  6419.6      267.48     0.73233    


end timestep


start timestep kper="10" kstp="8" mode="normal"

 UBDSV1 SAVING     FLOW-JA-FACE ON UNIT   1015 AT TIME STEP      8, STRESS PERIOD     10
 UBDSV06 SAVING              WEL IN MODEL MUMODEL          PACKAGE MUMODEL         CONNECTED TO MODEL MUMODEL          PACKAGE WEL-1            ON UNIT   1015 AT TIME STEP      8, STRESS PERIOD     10
 UBDSV06 SAVING             RCHA IN MODEL MUMODEL          PACKAGE MUMODEL         CONNECTED TO MODEL MUMODEL          PACKAGE RCH-1            ON UNIT   1015 AT TIME STEP      8, STRESS PERIOD     10

 WEL PACKAGE (WEL-1) FLOW RATES   PERIOD     10   STEP        8
 -----------------------------------------------
   NUMBER   CELLID                    RATE      
 -----------------------------------------------
     1      (1,5,5)               0.0000000     
     2      (1,11,5)              0.0000000     
     3      (1,5,5)               0.0000000     
 -----------------------------------------------




 CHD PACKAGE (CHD-FROM-IBOUND) FLOW RATES   PERIOD     10   STEP        8
 -----------------------------------------------
   NUMBER   CELLID                    RATE      
 -----------------------------------------------
     1      (1,1,1)              -2536.7065     
     2      (1,1,2)              -2536.7083     
     3      (1,1,3)              -2536.7085     
     4      (1,1,4)              -2536.7073     
     5      (1,1,5)              -2536.7058     
     6      (1,1,6)              -2536.7044     
     7      (1,1,7)              -2536.7028     
     8      (1,1,8)              -2536.7008     
     9      (1,1,9)              -2536.6988     
     10     (1,21,1)             -2536.6995     
     11     (1,21,2)             -2536.7020     
     12     (1,21,3)             -2536.7044     
     13     (1,21,4)             -2536.7061     
     14     (1,21,5)             -2536.7078     
     15     (1,21,6)             -2536.7095     
     16     (1,21,7)             -2536.7106     
     17     (1,21,8)             -2536.7093     
     18     (1,21,9)             -2536.7058     
 -----------------------------------------------




 HEAD WILL BE SAVED ON UNIT 1016 AT END OF TIME STEP    8, STRESS PERIOD   10


  VOLUME BUDGET FOR ENTIRE MODEL AT END OF TIME STEP    8, STRESS PERIOD  10
  ---------------------------------------------------------------------------------------------------

     CUMULATIVE VOLUME      L**3       RATES FOR THIS TIME STEP      L**3/T          PACKAGE NAME    
     ------------------                 ------------------------                     ----------------

           IN:                                      IN:
           ---                                      ---
              STO-SS =     3836032.6999                STO-SS =       39900.8636     STORAGE                          
              STO-SY =      143851.5608                STO-SY =        1484.8352     STORAGE                          
                 WEL =           0.0000                   WEL =           0.0000     WEL-1                            
                RCHA =    32498550.0000                  RCHA =        4275.0000     RCH-1                            
                 CHD =           0.0000                   CHD =           0.0000     CHD-FROM-IBOUND                  

            TOTAL IN =    36478434.2608              TOTAL IN =       45660.6988

          OUT:                                     OUT:
          ----                                     ----
              STO-SS =    23126572.6866                STO-SS =           0.0000     STORAGE                          
              STO-SY =      849754.3320                STO-SY =           0.0000     STORAGE                          
                 WEL =           0.0000                   WEL =           0.0000     WEL-1                            
                RCHA =           0.0000                  RCHA =           0.0000     RCH-1                            
                 CHD =    12502112.0489                   CHD =       45660.6984     CHD-FROM-IBOUND                  

           TOTAL OUT =    36478439.0675             TOTAL OUT =       45660.6984

            IN - OUT =          -4.8067              IN - OUT =       4.1228E-04

 PERCENT DISCREPANCY =          -0.00     PERCENT DISCREPANCY =           0.00




         TIME SUMMARY AT END OF TIME STEP    8 IN STRESS PERIOD   10
                    SECONDS     MINUTES      HOURS       DAYS        YEARS
                    -----------------------------------------------------------
   TIME STEP LENGTH 5.62916E+05  9381.9      156.37      6.5152     1.78377E-02
 STRESS PERIOD TIME 2.59200E+06  43200.      720.00      30.000     8.21355E-02
         TOTAL TIME 2.36736E+07 3.94560E+05  6576.0      274.00     0.75017    


end timestep


start timestep kper="11" kstp="1" mode="normal"


 OUTPUT CONTROL FOR STRESS PERIOD 11 IS REPEATED USING SETTINGS FROM A PREVIOUS STRESS PERIOD.


 STRESS PERIOD 11 IS TRANSIENT


 REUSING WELS FROM LAST STRESS PERIOD

 REUSING RCHS FROM LAST STRESS PERIOD

 REUSING CHDS FROM LAST STRESS PERIOD
 UBDSV1 SAVING     FLOW-JA-FACE ON UNIT   1015 AT TIME STEP      1, STRESS PERIOD     11
 UBDSV06 SAVING              WEL IN MODEL MUMODEL          PACKAGE MUMODEL         CONNECTED TO MODEL MUMODEL          PACKAGE WEL-1            ON UNIT   1015 AT TIME STEP      1, STRESS PERIOD     11
 UBDSV06 SAVING             RCHA IN MODEL MUMODEL          PACKAGE MUMODEL         CONNECTED TO MODEL MUMODEL          PACKAGE RCH-1            ON UNIT   1015 AT TIME STEP      1, STRESS PERIOD     11

 WEL PACKAGE (WEL-1) FLOW RATES   PERIOD     11   STEP        1
 -----------------------------------------------
   NUMBER   CELLID                    RATE      
 -----------------------------------------------
     1      (1,5,5)               0.0000000     
     2      (1,11,5)              0.0000000     
     3      (1,5,5)               0.0000000     
 -----------------------------------------------




 CHD PACKAGE (CHD-FROM-IBOUND) FLOW RATES   PERIOD     11   STEP        1
 -----------------------------------------------
   NUMBER   CELLID                    RATE      
 -----------------------------------------------
     1      (1,1,1)              -2535.5389     
     2      (1,1,2)              -2535.5407     
     3      (1,1,3)              -2535.5409     
     4      (1,1,4)              -2535.5397     
     5      (1,1,5)              -2535.5382     
     6      (1,1,6)              -2535.5368     
     7      (1,1,7)              -2535.5352     
     8      (1,1,8)              -2535.5332     
     9      (1,1,9)              -2535.5313     
     10     (1,21,1)             -2535.5319     
     11     (1,21,2)             -2535.5345     
     12     (1,21,3)             -2535.5368     
     13     (1,21,4)             -2535.5385     
     14     (1,21,5)             -2535.5402     
     15     (1,21,6)             -2535.5419     
     16     (1,21,7)             -2535.5430     
     17     (1,21,8)             -2535.5417     
     18     (1,21,9)             -2535.5382     
 -----------------------------------------------




 HEAD WILL BE SAVED ON UNIT 1016 AT END OF TIME STEP    1, STRESS PERIOD   11


  VOLUME BUDGET FOR ENTIRE MODEL AT END OF TIME STEP    1, STRESS PERIOD  11
  ---------------------------------------------------------------------------------------------------

     CUMULATIVE VOLUME      L**3       RATES FOR THIS TIME STEP      L**3/T          PACKAGE NAME    
     ------------------                 ------------------------                     ----------------

           IN:                                      IN:
           ---                                      ---
              STO-SS =     3910964.1881                STO-SS =       39880.6767     STORAGE                          
              STO-SY =      146639.8462                STO-SY =        1484.0050     STORAGE                          
                 WEL =           0.0000                   WEL =           0.0000     WEL-1                            
                RCHA =    32506582.2637                  RCHA =        4275.0000     RCH-1                            
                 CHD =           0.0000                   CHD =           0.0000     CHD-FROM-IBOUND                  

            TOTAL IN =    36564186.2980              TOTAL IN =       45639.6817

          OUT:                                     OUT:
          ----                                     ----
              STO-SS =    23126572.6866                STO-SS =           0.0000     STORAGE                          
              STO-SY =      849754.3320                STO-SY =           0.0000     STORAGE                          
                 WEL =           0.0000                   WEL =           0.0000     WEL-1                            
                RCHA =           0.0000                  RCHA =           0.0000     RCH-1                            
                 CHD =    12587864.0860                   CHD =       45639.6817     CHD-FROM-IBOUND                  

           TOTAL OUT =    36564191.1046             TOTAL OUT =       45639.6817

            IN - OUT =          -4.8066              IN - OUT =       1.3441E-05

 PERCENT DISCREPANCY =          -0.00     PERCENT DISCREPANCY =           0.00




         TIME SUMMARY AT END OF TIME STEP    1 IN STRESS PERIOD   11
                    SECONDS     MINUTES      HOURS       DAYS        YEARS
                    -----------------------------------------------------------
   TIME STEP LENGTH 1.62336E+05  2705.6      45.093      1.8789     5.14413E-03
 STRESS PERIOD TIME 1.62336E+05  2705.6      45.093      1.8789     5.14413E-03
         TOTAL TIME 2.38359E+07 3.97266E+05  6621.1      275.88     0.75532    


end timestep


start timestep kper="11" kstp="2" mode="normal"

 UBDSV1 SAVING     FLOW-JA-FACE ON UNIT   1015 AT TIME STEP      2, STRESS PERIOD     11
 UBDSV06 SAVING              WEL IN MODEL MUMODEL          PACKAGE MUMODEL         CONNECTED TO MODEL MUMODEL          PACKAGE WEL-1            ON UNIT   1015 AT TIME STEP      2, STRESS PERIOD     11
 UBDSV06 SAVING             RCHA IN MODEL MUMODEL          PACKAGE MUMODEL         CONNECTED TO MODEL MUMODEL          PACKAGE RCH-1            ON UNIT   1015 AT TIME STEP      2, STRESS PERIOD     11

 WEL PACKAGE (WEL-1) FLOW RATES   PERIOD     11   STEP        2
 -----------------------------------------------
   NUMBER   CELLID                    RATE      
 -----------------------------------------------
     1      (1,5,5)               0.0000000     
     2      (1,11,5)              0.0000000     
     3      (1,5,5)               0.0000000     
 -----------------------------------------------




 CHD PACKAGE (CHD-FROM-IBOUND) FLOW RATES   PERIOD     11   STEP        2
 -----------------------------------------------
   NUMBER   CELLID                    RATE      
 -----------------------------------------------
     1      (1,1,1)              -2534.1448     
     2      (1,1,2)              -2534.1466     
     3      (1,1,3)              -2534.1468     
     4      (1,1,4)              -2534.1456     
     5      (1,1,5)              -2534.1442     
     6      (1,1,6)              -2534.1428     
     7      (1,1,7)              -2534.1411     
     8      (1,1,8)              -2534.1391     
     9      (1,1,9)              -2534.1372     
     10     (1,21,1)             -2534.1379     
     11     (1,21,2)             -2534.1404     
     12     (1,21,3)             -2534.1428     
     13     (1,21,4)             -2534.1445     
     14     (1,21,5)             -2534.1461     
     15     (1,21,6)             -2534.1478     
     16     (1,21,7)             -2534.1489     
     17     (1,21,8)             -2534.1476     
     18     (1,21,9)             -2534.1441     
 -----------------------------------------------




 HEAD WILL BE SAVED ON UNIT 1016 AT END OF TIME STEP    2, STRESS PERIOD   11


  VOLUME BUDGET FOR ENTIRE MODEL AT END OF TIME STEP    2, STRESS PERIOD  11
  ---------------------------------------------------------------------------------------------------

     CUMULATIVE VOLUME      L**3       RATES FOR THIS TIME STEP      L**3/T          PACKAGE NAME    
     ------------------                 ------------------------                     ----------------

           IN:                                      IN:
           ---                                      ---
              STO-SS =     4000827.7653                STO-SS =       39856.6339     STORAGE                          
              STO-SY =      149983.4191                STO-SY =        1482.9541     STORAGE                          
                 WEL =           0.0000                   WEL =           0.0000     WEL-1                            
                RCHA =    32516220.9802                  RCHA =        4275.0000     RCH-1                            
                 CHD =           0.0000                   CHD =           0.0000     CHD-FROM-IBOUND                  

            TOTAL IN =    36667032.1646              TOTAL IN =       45614.5880

          OUT:                                     OUT:
          ----                                     ----
              STO-SS =    23126572.6866                STO-SS =           0.0000     STORAGE                          
              STO-SY =      849754.3320                STO-SY =           0.0000     STORAGE                          
                 WEL =           0.0000                   WEL =           0.0000     WEL-1                            
                RCHA =           0.0000                  RCHA =           0.0000     RCH-1                            
                 CHD =    12690709.9526                   CHD =       45614.5880     CHD-FROM-IBOUND                  

           TOTAL OUT =    36667036.9712             TOTAL OUT =       45614.5880

            IN - OUT =          -4.8066              IN - OUT =       1.2957E-05

 PERCENT DISCREPANCY =          -0.00     PERCENT DISCREPANCY =           0.00




         TIME SUMMARY AT END OF TIME STEP    2 IN STRESS PERIOD   11
                    SECONDS     MINUTES      HOURS       DAYS        YEARS
                    -----------------------------------------------------------
   TIME STEP LENGTH 1.94804E+05  3246.7      54.112      2.2547     6.17295E-03
 STRESS PERIOD TIME 3.57140E+05  5952.3      99.206      4.1336     1.13171E-02
         TOTAL TIME 2.40307E+07 4.00512E+05  6675.2      278.13     0.76149    


end timestep


start timestep kper="11" kstp="3" mode="normal"

 UBDSV1 SAVING     FLOW-JA-FACE ON UNIT   1015 AT TIME STEP      3, STRESS PERIOD     11
 UBDSV06 SAVING              WEL IN MODEL MUMODEL          PACKAGE MUMODEL         CONNECTED TO MODEL MUMODEL          PACKAGE WEL-1            ON UNIT   1015 AT TIME STEP      3, STRESS PERIOD     11
 UBDSV06 SAVING             RCHA IN MODEL MUMODEL          PACKAGE MUMODEL         CONNECTED TO MODEL MUMODEL          PACKAGE RCH-1            ON UNIT   1015 AT TIME STEP      3, STRESS PERIOD     11

 WEL PACKAGE (WEL-1) FLOW RATES   PERIOD     11   STEP        3
 -----------------------------------------------
   NUMBER   CELLID                    RATE      
 -----------------------------------------------
     1      (1,5,5)               0.0000000     
     2      (1,11,5)              0.0000000     
     3      (1,5,5)               0.0000000     
 -----------------------------------------------




 CHD PACKAGE (CHD-FROM-IBOUND) FLOW RATES   PERIOD     11   STEP        3
 -----------------------------------------------
   NUMBER   CELLID                    RATE      
 -----------------------------------------------
     1      (1,1,1)              -2532.4817     
     2      (1,1,2)              -2532.4835     
     3      (1,1,3)              -2532.4837     
     4      (1,1,4)              -2532.4826     
     5      (1,1,5)              -2532.4811     
     6      (1,1,6)              -2532.4797     
     7      (1,1,7)              -2532.4781     
     8      (1,1,8)              -2532.4761     
     9      (1,1,9)              -2532.4742     
     10     (1,21,1)             -2532.4749     
     11     (1,21,2)             -2532.4774     
     12     (1,21,3)             -2532.4797     
     13     (1,21,4)             -2532.4814     
     14     (1,21,5)             -2532.4830     
     15     (1,21,6)             -2532.4848     
     16     (1,21,7)             -2532.4858     
     17     (1,21,8)             -2532.4845     
     18     (1,21,9)             -2532.4811     
 -----------------------------------------------




 HEAD WILL BE SAVED ON UNIT 1016 AT END OF TIME STEP    3, STRESS PERIOD   11


  VOLUME BUDGET FOR ENTIRE MODEL AT END OF TIME STEP    3, STRESS PERIOD  11
  ---------------------------------------------------------------------------------------------------

     CUMULATIVE VOLUME      L**3       RATES FOR THIS TIME STEP      L**3/T          PACKAGE NAME    
     ------------------                 ------------------------                     ----------------

           IN:                                      IN:
           ---                                      ---
              STO-SS =     4108586.4573                STO-SS =       39827.9525     STORAGE                          
              STO-SY =      153992.3161                STO-SY =        1481.7010     STORAGE                          
                 WEL =           0.0000                   WEL =           0.0000     WEL-1                            
                RCHA =    32527787.4399                  RCHA =        4275.0000     RCH-1                            
                 CHD =           0.0000                   CHD =           0.0000     CHD-FROM-IBOUND                  

            TOTAL IN =    36790366.2133              TOTAL IN =       45584.6534

          OUT:                                     OUT:
          ----                                     ----
              STO-SS =    23126572.6866                STO-SS =           0.0000     STORAGE                          
              STO-SY =      849754.3320                STO-SY =           0.0000     STORAGE                          
                 WEL =           0.0000                   WEL =           0.0000     WEL-1                            
                RCHA =           0.0000                  RCHA =           0.0000     RCH-1                            
                 CHD =    12814044.0013                   CHD =       45584.6534     CHD-FROM-IBOUND                  

           TOTAL OUT =    36790371.0198             TOTAL OUT =       45584.6534

            IN - OUT =          -4.8065              IN - OUT =       2.9058E-05

 PERCENT DISCREPANCY =          -0.00     PERCENT DISCREPANCY =           0.00




         TIME SUMMARY AT END OF TIME STEP    3 IN STRESS PERIOD   11
                    SECONDS     MINUTES      HOURS       DAYS        YEARS
                    -----------------------------------------------------------
   TIME STEP LENGTH 2.33764E+05  3896.1      64.935      2.7056     7.40754E-03
 STRESS PERIOD TIME 5.90904E+05  9848.4      164.14      6.8392     1.87246E-02
         TOTAL TIME 2.42645E+07 4.04408E+05  6740.1      280.84     0.76890    


end timestep


start timestep kper="11" kstp="4" mode="normal"

 UBDSV1 SAVING     FLOW-JA-FACE ON UNIT   1015 AT TIME STEP      4, STRESS PERIOD     11
 UBDSV06 SAVING              WEL IN MODEL MUMODEL          PACKAGE MUMODEL         CONNECTED TO MODEL MUMODEL          PACKAGE WEL-1            ON UNIT   1015 AT TIME STEP      4, STRESS PERIOD     11
 UBDSV06 SAVING             RCHA IN MODEL MUMODEL          PACKAGE MUMODEL         CONNECTED TO MODEL MUMODEL          PACKAGE RCH-1            ON UNIT   1015 AT TIME STEP      4, STRESS PERIOD     11

 WEL PACKAGE (WEL-1) FLOW RATES   PERIOD     11   STEP        4
 -----------------------------------------------
   NUMBER   CELLID                    RATE      
 -----------------------------------------------
     1      (1,5,5)               0.0000000     
     2      (1,11,5)              0.0000000     
     3      (1,5,5)               0.0000000     
 -----------------------------------------------




 CHD PACKAGE (CHD-FROM-IBOUND) FLOW RATES   PERIOD     11   STEP        4
 -----------------------------------------------
   NUMBER   CELLID                    RATE      
 -----------------------------------------------
     1      (1,1,1)              -2530.5001     
     2      (1,1,2)              -2530.5019     
     3      (1,1,3)              -2530.5021     
     4      (1,1,4)              -2530.5010     
     5      (1,1,5)              -2530.4995     
     6      (1,1,6)              -2530.4981     
     7      (1,1,7)              -2530.4965     
     8      (1,1,8)              -2530.4945     
     9      (1,1,9)              -2530.4926     
     10     (1,21,1)             -2530.4933     
     11     (1,21,2)             -2530.4958     
     12     (1,21,3)             -2530.4981     
     13     (1,21,4)             -2530.4998     
     14     (1,21,5)             -2530.5014     
     15     (1,21,6)             -2530.5032     
     16     (1,21,7)             -2530.5042     
     17     (1,21,8)             -2530.5029     
     18     (1,21,9)             -2530.4995     
 -----------------------------------------------




 HEAD WILL BE SAVED ON UNIT 1016 AT END OF TIME STEP    4, STRESS PERIOD   11


  VOLUME BUDGET FOR ENTIRE MODEL AT END OF TIME STEP    4, STRESS PERIOD  11
  ---------------------------------------------------------------------------------------------------

     CUMULATIVE VOLUME      L**3       RATES FOR THIS TIME STEP      L**3/T          PACKAGE NAME    
     ------------------                 ------------------------                     ----------------

           IN:                                      IN:
           ---                                      ---
              STO-SS =     4237785.9271                STO-SS =       39793.7763     STORAGE                          
              STO-SY =      158798.1469                STO-SY =        1480.2085     STORAGE                          
                 WEL =           0.0000                   WEL =           0.0000     WEL-1                            
                RCHA =    32541667.1916                  RCHA =        4275.0000     RCH-1                            
                 CHD =           0.0000                   CHD =           0.0000     CHD-FROM-IBOUND                  

            TOTAL IN =    36938251.2656              TOTAL IN =       45548.9848

          OUT:                                     OUT:
          ----                                     ----
              STO-SS =    23126572.6866                STO-SS =           0.0000     STORAGE                          
              STO-SY =      849754.3320                STO-SY =           0.0000     STORAGE                          
                 WEL =           0.0000                   WEL =           0.0000     WEL-1                            
                RCHA =           0.0000                  RCHA =           0.0000     RCH-1                            
                 CHD =    12961929.0534                   CHD =       45548.9848     CHD-FROM-IBOUND                  

           TOTAL OUT =    36938256.0719             TOTAL OUT =       45548.9848

            IN - OUT =          -4.8064              IN - OUT =       4.8714E-05

 PERCENT DISCREPANCY =          -0.00     PERCENT DISCREPANCY =           0.00




         TIME SUMMARY AT END OF TIME STEP    4 IN STRESS PERIOD   11
                    SECONDS     MINUTES      HOURS       DAYS        YEARS
                    -----------------------------------------------------------
   TIME STEP LENGTH 2.80517E+05  4675.3      77.921      3.2467     8.88905E-03
 STRESS PERIOD TIME 8.71421E+05  14524.      242.06      10.086     2.76137E-02
         TOTAL TIME 2.45450E+07 4.09084E+05  6818.1      284.09     0.77778    


end timestep


start timestep kper="11" kstp="5" mode="normal"

 UBDSV1 SAVING     FLOW-JA-FACE ON UNIT   1015 AT TIME STEP      5, STRESS PERIOD     11
 UBDSV06 SAVING              WEL IN MODEL MUMODEL          PACKAGE MUMODEL         CONNECTED TO MODEL MUMODEL          PACKAGE WEL-1            ON UNIT   1015 AT TIME STEP      5, STRESS PERIOD     11
 UBDSV06 SAVING             RCHA IN MODEL MUMODEL          PACKAGE MUMODEL         CONNECTED TO MODEL MUMODEL          PACKAGE RCH-1            ON UNIT   1015 AT TIME STEP      5, STRESS PERIOD     11

 WEL PACKAGE (WEL-1) FLOW RATES   PERIOD     11   STEP        5
 -----------------------------------------------
   NUMBER   CELLID                    RATE      
 -----------------------------------------------
     1      (1,5,5)               0.0000000     
     2      (1,11,5)              0.0000000     
     3      (1,5,5)               0.0000000     
 -----------------------------------------------




 CHD PACKAGE (CHD-FROM-IBOUND) FLOW RATES   PERIOD     11   STEP        5
 -----------------------------------------------
   NUMBER   CELLID                    RATE      
 -----------------------------------------------
     1      (1,1,1)              -2528.1422     
     2      (1,1,2)              -2528.1439     
     3      (1,1,3)              -2528.1441     
     4      (1,1,4)              -2528.1430     
     5      (1,1,5)              -2528.1415     
     6      (1,1,6)              -2528.1402     
     7      (1,1,7)              -2528.1386     
     8      (1,1,8)              -2528.1365     
     9      (1,1,9)              -2528.1347     
     10     (1,21,1)             -2528.1354     
     11     (1,21,2)             -2528.1378     
     12     (1,21,3)             -2528.1402     
     13     (1,21,4)             -2528.1419     
     14     (1,21,5)             -2528.1435     
     15     (1,21,6)             -2528.1452     
     16     (1,21,7)             -2528.1462     
     17     (1,21,8)             -2528.1449     
     18     (1,21,9)             -2528.1415     
 -----------------------------------------------




 HEAD WILL BE SAVED ON UNIT 1016 AT END OF TIME STEP    5, STRESS PERIOD   11


  VOLUME BUDGET FOR ENTIRE MODEL AT END OF TIME STEP    5, STRESS PERIOD  11
  ---------------------------------------------------------------------------------------------------

     CUMULATIVE VOLUME      L**3       RATES FOR THIS TIME STEP      L**3/T          PACKAGE NAME    
     ------------------                 ------------------------                     ----------------

           IN:                                      IN:
           ---                                      ---
              STO-SS =     4392666.8428                STO-SS =       39753.1076     STORAGE                          
              STO-SY =      164558.2288                STO-SY =        1478.4336     STORAGE                          
                 WEL =           0.0000                   WEL =           0.0000     WEL-1                            
                RCHA =    32558322.8936                  RCHA =        4275.0000     RCH-1                            
                 CHD =           0.0000                   CHD =           0.0000     CHD-FROM-IBOUND                  

            TOTAL IN =    37115547.9652              TOTAL IN =       45506.5413

          OUT:                                     OUT:
          ----                                     ----
              STO-SS =    23126572.6866                STO-SS =           0.0000     STORAGE                          
              STO-SY =      849754.3320                STO-SY =           0.0000     STORAGE                          
                 WEL =           0.0000                   WEL =           0.0000     WEL-1                            
                RCHA =           0.0000                  RCHA =           0.0000     RCH-1                            
                 CHD =    13139225.7527                   CHD =       45506.5412     CHD-FROM-IBOUND                  

           TOTAL OUT =    37115552.7713             TOTAL OUT =       45506.5412

            IN - OUT =          -4.8060              IN - OUT =       8.6203E-05

 PERCENT DISCREPANCY =          -0.00     PERCENT DISCREPANCY =           0.00




         TIME SUMMARY AT END OF TIME STEP    5 IN STRESS PERIOD   11
                    SECONDS     MINUTES      HOURS       DAYS        YEARS
                    -----------------------------------------------------------
   TIME STEP LENGTH 3.36621E+05  5610.3      93.506      3.8961     1.06669E-02
 STRESS PERIOD TIME 1.20804E+06  20134.      335.57      13.982     3.82805E-02
         TOTAL TIME 2.48816E+07 4.14694E+05  6911.6      287.98     0.78845    


end timestep


start timestep kper="11" kstp="6" mode="normal"

 UBDSV1 SAVING     FLOW-JA-FACE ON UNIT   1015 AT TIME STEP      6, STRESS PERIOD     11
 UBDSV06 SAVING              WEL IN MODEL MUMODEL          PACKAGE MUMODEL         CONNECTED TO MODEL MUMODEL          PACKAGE WEL-1            ON UNIT   1015 AT TIME STEP      6, STRESS PERIOD     11
 UBDSV06 SAVING             RCHA IN MODEL MUMODEL          PACKAGE MUMODEL         CONNECTED TO MODEL MUMODEL          PACKAGE RCH-1            ON UNIT   1015 AT TIME STEP      6, STRESS PERIOD     11

 WEL PACKAGE (WEL-1) FLOW RATES   PERIOD     11   STEP        6
 -----------------------------------------------
   NUMBER   CELLID                    RATE      
 -----------------------------------------------
     1      (1,5,5)               0.0000000     
     2      (1,11,5)              0.0000000     
     3      (1,5,5)               0.0000000     
 -----------------------------------------------




 CHD PACKAGE (CHD-FROM-IBOUND) FLOW RATES   PERIOD     11   STEP        6
 -----------------------------------------------
   NUMBER   CELLID                    RATE      
 -----------------------------------------------
     1      (1,1,1)              -2525.3408     
     2      (1,1,2)              -2525.3425     
     3      (1,1,3)              -2525.3427     
     4      (1,1,4)              -2525.3416     
     5      (1,1,5)              -2525.3402     
     6      (1,1,6)              -2525.3388     
     7      (1,1,7)              -2525.3372     
     8      (1,1,8)              -2525.3352     
     9      (1,1,9)              -2525.3333     
     10     (1,21,1)             -2525.3341     
     11     (1,21,2)             -2525.3365     
     12     (1,21,3)             -2525.3388     
     13     (1,21,4)             -2525.3405     
     14     (1,21,5)             -2525.3421     
     15     (1,21,6)             -2525.3438     
     16     (1,21,7)             -2525.3448     
     17     (1,21,8)             -2525.3435     
     18     (1,21,9)             -2525.3402     
 -----------------------------------------------




 HEAD WILL BE SAVED ON UNIT 1016 AT END OF TIME STEP    6, STRESS PERIOD   11


  VOLUME BUDGET FOR ENTIRE MODEL AT END OF TIME STEP    6, STRESS PERIOD  11
  ---------------------------------------------------------------------------------------------------

     CUMULATIVE VOLUME      L**3       RATES FOR THIS TIME STEP      L**3/T          PACKAGE NAME    
     ------------------                 ------------------------                     ----------------

           IN:                                      IN:
           ---                                      ---
              STO-SS =     4578298.0432                STO-SS =       39704.7900     STORAGE                          
              STO-SY =      171460.4758                STO-SY =        1476.3265     STORAGE                          
                 WEL =           0.0000                   WEL =           0.0000     WEL-1                            
                RCHA =    32578309.7360                  RCHA =        4275.0000     RCH-1                            
                 CHD =           0.0000                   CHD =           0.0000     CHD-FROM-IBOUND                  

            TOTAL IN =    37328068.2550              TOTAL IN =       45456.1166

          OUT:                                     OUT:
          ----                                     ----
              STO-SS =    23126572.6866                STO-SS =           0.0000     STORAGE                          
              STO-SY =      849754.3320                STO-SY =           0.0000     STORAGE                          
                 WEL =           0.0000                   WEL =           0.0000     WEL-1                            
                RCHA =           0.0000                  RCHA =           0.0000     RCH-1                            
                 CHD =    13351746.0418                   CHD =       45456.1164     CHD-FROM-IBOUND                  

           TOTAL OUT =    37328073.0603             TOTAL OUT =       45456.1164

            IN - OUT =          -4.8054              IN - OUT =       1.4090E-04

 PERCENT DISCREPANCY =          -0.00     PERCENT DISCREPANCY =           0.00




         TIME SUMMARY AT END OF TIME STEP    6 IN STRESS PERIOD   11
                    SECONDS     MINUTES      HOURS       DAYS        YEARS
                    -----------------------------------------------------------
   TIME STEP LENGTH 4.03945E+05  6732.4      112.21      4.6753     1.28002E-02
 STRESS PERIOD TIME 1.61199E+06  26866.      447.77      18.657     5.10808E-02
         TOTAL TIME 2.52856E+07 4.21426E+05  7023.8      292.66     0.80125    


end timestep


start timestep kper="11" kstp="7" mode="normal"

 UBDSV1 SAVING     FLOW-JA-FACE ON UNIT   1015 AT TIME STEP      7, STRESS PERIOD     11
 UBDSV06 SAVING              WEL IN MODEL MUMODEL          PACKAGE MUMODEL         CONNECTED TO MODEL MUMODEL          PACKAGE WEL-1            ON UNIT   1015 AT TIME STEP      7, STRESS PERIOD     11
 UBDSV06 SAVING             RCHA IN MODEL MUMODEL          PACKAGE MUMODEL         CONNECTED TO MODEL MUMODEL          PACKAGE RCH-1            ON UNIT   1015 AT TIME STEP      7, STRESS PERIOD     11

 WEL PACKAGE (WEL-1) FLOW RATES   PERIOD     11   STEP        7
 -----------------------------------------------
   NUMBER   CELLID                    RATE      
 -----------------------------------------------
     1      (1,5,5)               0.0000000     
     2      (1,11,5)              0.0000000     
     3      (1,5,5)               0.0000000     
 -----------------------------------------------




 CHD PACKAGE (CHD-FROM-IBOUND) FLOW RATES   PERIOD     11   STEP        7
 -----------------------------------------------
   NUMBER   CELLID                    RATE      
 -----------------------------------------------
     1      (1,1,1)              -2522.0189     
     2      (1,1,2)              -2522.0206     
     3      (1,1,3)              -2522.0208     
     4      (1,1,4)              -2522.0197     
     5      (1,1,5)              -2522.0183     
     6      (1,1,6)              -2522.0169     
     7      (1,1,7)              -2522.0153     
     8      (1,1,8)              -2522.0133     
     9      (1,1,9)              -2522.0115     
     10     (1,21,1)             -2522.0122     
     11     (1,21,2)             -2522.0146     
     12     (1,21,3)             -2522.0169     
     13     (1,21,4)             -2522.0186     
     14     (1,21,5)             -2522.0202     
     15     (1,21,6)             -2522.0219     
     16     (1,21,7)             -2522.0228     
     17     (1,21,8)             -2522.0215     
     18     (1,21,9)             -2522.0183     
 -----------------------------------------------




 HEAD WILL BE SAVED ON UNIT 1016 AT END OF TIME STEP    7, STRESS PERIOD   11


  VOLUME BUDGET FOR ENTIRE MODEL AT END OF TIME STEP    7, STRESS PERIOD  11
  ---------------------------------------------------------------------------------------------------

     CUMULATIVE VOLUME      L**3       RATES FOR THIS TIME STEP      L**3/T          PACKAGE NAME    
     ------------------                 ------------------------                     ----------------

           IN:                                      IN:
           ---                                      ---
              STO-SS =     4800734.0247                STO-SS =       39647.4925     STORAGE                          
              STO-SY =      179729.1660                STO-SY =        1473.8300     STORAGE                          
                 WEL =           0.0000                   WEL =           0.0000     WEL-1                            
                RCHA =    32602293.9469                  RCHA =        4275.0000     RCH-1                            
                 CHD =           0.0000                   CHD =           0.0000     CHD-FROM-IBOUND                  

            TOTAL IN =    37582757.1376              TOTAL IN =       45396.3225

          OUT:                                     OUT:
          ----                                     ----
              STO-SS =    23126572.6866                STO-SS =           0.0000     STORAGE                          
              STO-SY =      849754.3320                STO-SY =           0.0000     STORAGE                          
                 WEL =           0.0000                   WEL =           0.0000     WEL-1                            
                RCHA =           0.0000                  RCHA =           0.0000     RCH-1                            
                 CHD =    13606434.9231                   CHD =       45396.3223     CHD-FROM-IBOUND                  

           TOTAL OUT =    37582761.9416             TOTAL OUT =       45396.3223

            IN - OUT =          -4.8041              IN - OUT =       2.3308E-04

 PERCENT DISCREPANCY =          -0.00     PERCENT DISCREPANCY =           0.00




         TIME SUMMARY AT END OF TIME STEP    7 IN STRESS PERIOD   11
                    SECONDS     MINUTES      HOURS       DAYS        YEARS
                    -----------------------------------------------------------
   TIME STEP LENGTH 4.84734E+05  8078.9      134.65      5.6103     1.53603E-02
 STRESS PERIOD TIME 2.09672E+06  34945.      582.42      24.268     6.64410E-02
         TOTAL TIME 2.57703E+07 4.29505E+05  7158.4      298.27     0.81661    


end timestep


start timestep kper="11" kstp="8" mode="normal"

 UBDSV1 SAVING     FLOW-JA-FACE ON UNIT   1015 AT TIME STEP      8, STRESS PERIOD     11
 UBDSV06 SAVING              WEL IN MODEL MUMODEL          PACKAGE MUMODEL         CONNECTED TO MODEL MUMODEL          PACKAGE WEL-1            ON UNIT   1015 AT TIME STEP      8, STRESS PERIOD     11
 UBDSV06 SAVING             RCHA IN MODEL MUMODEL          PACKAGE MUMODEL         CONNECTED TO MODEL MUMODEL          PACKAGE RCH-1            ON UNIT   1015 AT TIME STEP      8, STRESS PERIOD     11

 WEL PACKAGE (WEL-1) FLOW RATES   PERIOD     11   STEP        8
 -----------------------------------------------
   NUMBER   CELLID                    RATE      
 -----------------------------------------------
     1      (1,5,5)               0.0000000     
     2      (1,11,5)              0.0000000     
     3      (1,5,5)               0.0000000     
 -----------------------------------------------




 CHD PACKAGE (CHD-FROM-IBOUND) FLOW RATES   PERIOD     11   STEP        8
 -----------------------------------------------
   NUMBER   CELLID                    RATE      
 -----------------------------------------------
     1      (1,1,1)              -2518.0884     
     2      (1,1,2)              -2518.0901     
     3      (1,1,3)              -2518.0903     
     4      (1,1,4)              -2518.0892     
     5      (1,1,5)              -2518.0878     
     6      (1,1,6)              -2518.0865     
     7      (1,1,7)              -2518.0849     
     8      (1,1,8)              -2518.0829     
     9      (1,1,9)              -2518.0811     
     10     (1,21,1)             -2518.0819     
     11     (1,21,2)             -2518.0842     
     12     (1,21,3)             -2518.0865     
     13     (1,21,4)             -2518.0881     
     14     (1,21,5)             -2518.0897     
     15     (1,21,6)             -2518.0914     
     16     (1,21,7)             -2518.0923     
     17     (1,21,8)             -2518.0910     
     18     (1,21,9)             -2518.0878     
 -----------------------------------------------




 HEAD WILL BE SAVED ON UNIT 1016 AT END OF TIME STEP    8, STRESS PERIOD   11


  VOLUME BUDGET FOR ENTIRE MODEL AT END OF TIME STEP    8, STRESS PERIOD  11
  ---------------------------------------------------------------------------------------------------

     CUMULATIVE VOLUME      L**3       RATES FOR THIS TIME STEP      L**3/T          PACKAGE NAME    
     ------------------                 ------------------------                     ----------------

           IN:                                      IN:
           ---                                      ---
              STO-SS =     5067200.7633                STO-SS =       39579.6952     STORAGE                          
              STO-SY =      189631.7283                STO-SY =        1470.8793     STORAGE                          
                 WEL =           0.0000                   WEL =           0.0000     WEL-1                            
                RCHA =    32631075.0000                  RCHA =        4275.0000     RCH-1                            
                 CHD =           0.0000                   CHD =           0.0000     CHD-FROM-IBOUND                  

            TOTAL IN =    37887907.4916              TOTAL IN =       45325.5744

          OUT:                                     OUT:
          ----                                     ----
              STO-SS =    23126572.6866                STO-SS =           0.0000     STORAGE                          
              STO-SY =      849754.3320                STO-SY =           0.0000     STORAGE                          
                 WEL =           0.0000                   WEL =           0.0000     WEL-1                            
                RCHA =           0.0000                  RCHA =           0.0000     RCH-1                            
                 CHD =    13911585.2745                   CHD =       45325.5740     CHD-FROM-IBOUND                  

           TOTAL OUT =    37887912.2931             TOTAL OUT =       45325.5740

            IN - OUT =          -4.8015              IN - OUT =       3.8372E-04

 PERCENT DISCREPANCY =          -0.00     PERCENT DISCREPANCY =           0.00




         TIME SUMMARY AT END OF TIME STEP    8 IN STRESS PERIOD   11
                    SECONDS     MINUTES      HOURS       DAYS        YEARS
                    -----------------------------------------------------------
   TIME STEP LENGTH 5.81680E+05  9694.7      161.58      6.7324     1.84323E-02
 STRESS PERIOD TIME 2.67840E+06  44640.      744.00      31.000     8.48734E-02
         TOTAL TIME 2.63520E+07 4.39200E+05  7320.0      305.00     0.83504    


end timestep


start timestep kper="12" kstp="1" mode="normal"


 OUTPUT CONTROL FOR STRESS PERIOD 12 IS REPEATED USING SETTINGS FROM A PREVIOUS STRESS PERIOD.


 STRESS PERIOD 12 IS TRANSIENT


 REUSING WELS FROM LAST STRESS PERIOD

 REUSING RCHS FROM LAST STRESS PERIOD

 REUSING CHDS FROM LAST STRESS PERIOD
 UBDSV1 SAVING     FLOW-JA-FACE ON UNIT   1015 AT TIME STEP      1, STRESS PERIOD     12
 UBDSV06 SAVING              WEL IN MODEL MUMODEL          PACKAGE MUMODEL         CONNECTED TO MODEL MUMODEL          PACKAGE WEL-1            ON UNIT   1015 AT TIME STEP      1, STRESS PERIOD     12
 UBDSV06 SAVING             RCHA IN MODEL MUMODEL          PACKAGE MUMODEL         CONNECTED TO MODEL MUMODEL          PACKAGE RCH-1            ON UNIT   1015 AT TIME STEP      1, STRESS PERIOD     12

 WEL PACKAGE (WEL-1) FLOW RATES   PERIOD     12   STEP        1
 -----------------------------------------------
   NUMBER   CELLID                    RATE      
 -----------------------------------------------
     1      (1,5,5)               0.0000000     
     2      (1,11,5)              0.0000000     
     3      (1,5,5)               0.0000000     
 -----------------------------------------------




 CHD PACKAGE (CHD-FROM-IBOUND) FLOW RATES   PERIOD     12   STEP        1
 -----------------------------------------------
   NUMBER   CELLID                    RATE      
 -----------------------------------------------
     1      (1,1,1)              -2517.0816     
     2      (1,1,2)              -2517.0832     
     3      (1,1,3)              -2517.0834     
     4      (1,1,4)              -2517.0823     
     5      (1,1,5)              -2517.0809     
     6      (1,1,6)              -2517.0796     
     7      (1,1,7)              -2517.0780     
     8      (1,1,8)              -2517.0760     
     9      (1,1,9)              -2517.0742     
     10     (1,21,1)             -2517.0750     
     11     (1,21,2)             -2517.0773     
     12     (1,21,3)             -2517.0796     
     13     (1,21,4)             -2517.0813     
     14     (1,21,5)             -2517.0828     
     15     (1,21,6)             -2517.0845     
     16     (1,21,7)             -2517.0854     
     17     (1,21,8)             -2517.0841     
     18     (1,21,9)             -2517.0809     
 -----------------------------------------------




 HEAD WILL BE SAVED ON UNIT 1016 AT END OF TIME STEP    1, STRESS PERIOD   12


  VOLUME BUDGET FOR ENTIRE MODEL AT END OF TIME STEP    1, STRESS PERIOD  12
  ---------------------------------------------------------------------------------------------------

     CUMULATIVE VOLUME      L**3       RATES FOR THIS TIME STEP      L**3/T          PACKAGE NAME    
     ------------------                 ------------------------                     ----------------

           IN:                                      IN:
           ---                                      ---
              STO-SS =     5139135.3361                STO-SS =       39561.8206     STORAGE                          
              STO-SY =      192304.8737                STO-SY =        1470.1484     STORAGE                          
                 WEL =           0.0000                   WEL =           0.0000     WEL-1                            
                RCHA =    32638848.1584                  RCHA =        4275.0000     RCH-1                            
                 CHD =           0.0000                   CHD =           0.0000     CHD-FROM-IBOUND                  

            TOTAL IN =    37970288.3682              TOTAL IN =       45306.9690

          OUT:                                     OUT:
          ----                                     ----
              STO-SS =    23126572.6866                STO-SS =           0.0000     STORAGE                          
              STO-SY =      849754.3320                STO-SY =           0.0000     STORAGE                          
                 WEL =           0.0000                   WEL =           0.0000     WEL-1                            
                RCHA =           0.0000                  RCHA =           0.0000     RCH-1                            
                 CHD =    13993967.0262                   CHD =       45307.4502     CHD-FROM-IBOUND                  

           TOTAL OUT =    37970294.0447             TOTAL OUT =       45307.4502

            IN - OUT =          -5.6765              IN - OUT =          -0.4812

 PERCENT DISCREPANCY =          -0.00     PERCENT DISCREPANCY =          -0.00




         TIME SUMMARY AT END OF TIME STEP    1 IN STRESS PERIOD   12
                    SECONDS     MINUTES      HOURS       DAYS        YEARS
                    -----------------------------------------------------------
   TIME STEP LENGTH 1.57100E+05  2618.3      43.639      1.8183     4.97819E-03
 STRESS PERIOD TIME 1.57100E+05  2618.3      43.639      1.8183     4.97819E-03
         TOTAL TIME 2.65091E+07 4.41818E+05  7363.6      306.82     0.84002    


end timestep


start timestep kper="12" kstp="2" mode="normal"

 UBDSV1 SAVING     FLOW-JA-FACE ON UNIT   1015 AT TIME STEP      2, STRESS PERIOD     12
 UBDSV06 SAVING              WEL IN MODEL MUMODEL          PACKAGE MUMODEL         CONNECTED TO MODEL MUMODEL          PACKAGE WEL-1            ON UNIT   1015 AT TIME STEP      2, STRESS PERIOD     12
 UBDSV06 SAVING             RCHA IN MODEL MUMODEL          PACKAGE MUMODEL         CONNECTED TO MODEL MUMODEL          PACKAGE RCH-1            ON UNIT   1015 AT TIME STEP      2, STRESS PERIOD     12

 WEL PACKAGE (WEL-1) FLOW RATES   PERIOD     12   STEP        2
 -----------------------------------------------
   NUMBER   CELLID                    RATE      
 -----------------------------------------------
     1      (1,5,5)               0.0000000     
     2      (1,11,5)              0.0000000     
     3      (1,5,5)               0.0000000     
 -----------------------------------------------




 CHD PACKAGE (CHD-FROM-IBOUND) FLOW RATES   PERIOD     12   STEP        2
 -----------------------------------------------
   NUMBER   CELLID                    RATE      
 -----------------------------------------------
     1      (1,1,1)              -2515.7677     
     2      (1,1,2)              -2515.7694     
     3      (1,1,3)              -2515.7696     
     4      (1,1,4)              -2515.7685     
     5      (1,1,5)              -2515.7671     
     6      (1,1,6)              -2515.7658     
     7      (1,1,7)              -2515.7642     
     8      (1,1,8)              -2515.7622     
     9      (1,1,9)              -2515.7604     
     10     (1,21,1)             -2515.7612     
     11     (1,21,2)             -2515.7636     
     12     (1,21,3)             -2515.7658     
     13     (1,21,4)             -2515.7675     
     14     (1,21,5)             -2515.7690     
     15     (1,21,6)             -2515.7707     
     16     (1,21,7)             -2515.7716     
     17     (1,21,8)             -2515.7703     
     18     (1,21,9)             -2515.7671     
 -----------------------------------------------




 HEAD WILL BE SAVED ON UNIT 1016 AT END OF TIME STEP    2, STRESS PERIOD   12


  VOLUME BUDGET FOR ENTIRE MODEL AT END OF TIME STEP    2, STRESS PERIOD  12
  ---------------------------------------------------------------------------------------------------

     CUMULATIVE VOLUME      L**3       RATES FOR THIS TIME STEP      L**3/T          PACKAGE NAME    
     ------------------                 ------------------------                     ----------------

           IN:                                      IN:
           ---                                      ---
              STO-SS =     5225408.3683                STO-SS =       39539.6131     STORAGE                          
              STO-SY =      195510.5540                STO-SY =        1469.1887     STORAGE                          
                 WEL =           0.0000                   WEL =           0.0000     WEL-1                            
                RCHA =    32648175.9485                  RCHA =        4275.0000     RCH-1                            
                 CHD =           0.0000                   CHD =           0.0000     CHD-FROM-IBOUND                  

            TOTAL IN =    38069094.8708              TOTAL IN =       45283.8018

          OUT:                                     OUT:
          ----                                     ----
              STO-SS =    23126572.6866                STO-SS =           0.0000     STORAGE                          
              STO-SY =      849754.3320                STO-SY =           0.0000     STORAGE                          
                 WEL =           0.0000                   WEL =           0.0000     WEL-1                            
                RCHA =           0.0000                  RCHA =           0.0000     RCH-1                            
                 CHD =    14092773.5288                   CHD =       45283.8018     CHD-FROM-IBOUND                  

           TOTAL OUT =    38069100.5473             TOTAL OUT =       45283.8018

            IN - OUT =          -5.6765              IN - OUT =       1.6328E-05

 PERCENT DISCREPANCY =          -0.00     PERCENT DISCREPANCY =           0.00




         TIME SUMMARY AT END OF TIME STEP    2 IN STRESS PERIOD   12
                    SECONDS     MINUTES      HOURS       DAYS        YEARS
                    -----------------------------------------------------------
   TIME STEP LENGTH 1.88520E+05  3142.0      52.367      2.1819     5.97382E-03
 STRESS PERIOD TIME 3.45619E+05  5760.3      96.005      4.0002     1.09520E-02
         TOTAL TIME 2.66976E+07 4.44960E+05  7416.0      309.00     0.84600    


end timestep


start timestep kper="12" kstp="3" mode="normal"

 UBDSV1 SAVING     FLOW-JA-FACE ON UNIT   1015 AT TIME STEP      3, STRESS PERIOD     12
 UBDSV06 SAVING              WEL IN MODEL MUMODEL          PACKAGE MUMODEL         CONNECTED TO MODEL MUMODEL          PACKAGE WEL-1            ON UNIT   1015 AT TIME STEP      3, STRESS PERIOD     12
 UBDSV06 SAVING             RCHA IN MODEL MUMODEL          PACKAGE MUMODEL         CONNECTED TO MODEL MUMODEL          PACKAGE RCH-1            ON UNIT   1015 AT TIME STEP      3, STRESS PERIOD     12

 WEL PACKAGE (WEL-1) FLOW RATES   PERIOD     12   STEP        3
 -----------------------------------------------
   NUMBER   CELLID                    RATE      
 -----------------------------------------------
     1      (1,5,5)               0.0000000     
     2      (1,11,5)              0.0000000     
     3      (1,5,5)               0.0000000     
 -----------------------------------------------




 CHD PACKAGE (CHD-FROM-IBOUND) FLOW RATES   PERIOD     12   STEP        3
 -----------------------------------------------
   NUMBER   CELLID                    RATE      
 -----------------------------------------------
     1      (1,1,1)              -2514.2601     
     2      (1,1,2)              -2514.2617     
     3      (1,1,3)              -2514.2619     
     4      (1,1,4)              -2514.2609     
     5      (1,1,5)              -2514.2595     
     6      (1,1,6)              -2514.2581     
     7      (1,1,7)              -2514.2566     
     8      (1,1,8)              -2514.2546     
     9      (1,1,9)              -2514.2528     
     10     (1,21,1)             -2514.2536     
     11     (1,21,2)             -2514.2559     
     12     (1,21,3)             -2514.2582     
     13     (1,21,4)             -2514.2598     
     14     (1,21,5)             -2514.2614     
     15     (1,21,6)             -2514.2630     
     16     (1,21,7)             -2514.2639     
     17     (1,21,8)             -2514.2626     
     18     (1,21,9)             -2514.2595     
 -----------------------------------------------




 HEAD WILL BE SAVED ON UNIT 1016 AT END OF TIME STEP    3, STRESS PERIOD   12


  VOLUME BUDGET FOR ENTIRE MODEL AT END OF TIME STEP    3, STRESS PERIOD  12
  ---------------------------------------------------------------------------------------------------

     CUMULATIVE VOLUME      L**3       RATES FOR THIS TIME STEP      L**3/T          PACKAGE NAME    
     ------------------                 ------------------------                     ----------------

           IN:                                      IN:
           ---                                      ---
              STO-SS =     5328867.9132                STO-SS =       39513.6066     STORAGE                          
              STO-SY =      199354.4093                STO-SY =        1468.0577     STORAGE                          
                 WEL =           0.0000                   WEL =           0.0000     WEL-1                            
                RCHA =    32659369.2967                  RCHA =        4275.0000     RCH-1                            
                 CHD =           0.0000                   CHD =           0.0000     CHD-FROM-IBOUND                  

            TOTAL IN =    38187591.6191              TOTAL IN =       45256.6643

          OUT:                                     OUT:
          ----                                     ----
              STO-SS =    23126572.6866                STO-SS =           0.0000     STORAGE                          
              STO-SY =      849754.3320                STO-SY =           0.0000     STORAGE                          
                 WEL =           0.0000                   WEL =           0.0000     WEL-1                            
                RCHA =           0.0000                  RCHA =           0.0000     RCH-1                            
                 CHD =    14211270.2770                   CHD =       45256.6643     CHD-FROM-IBOUND                  

           TOTAL OUT =    38187597.2956             TOTAL OUT =       45256.6643

            IN - OUT =          -5.6764              IN - OUT =       2.3388E-05

 PERCENT DISCREPANCY =          -0.00     PERCENT DISCREPANCY =           0.00




         TIME SUMMARY AT END OF TIME STEP    3 IN STRESS PERIOD   12
                    SECONDS     MINUTES      HOURS       DAYS        YEARS
                    -----------------------------------------------------------
   TIME STEP LENGTH 2.26223E+05  3770.4      62.840      2.6183     7.16859E-03
 STRESS PERIOD TIME 5.71843E+05  9530.7      158.85      6.6185     1.81206E-02
         TOTAL TIME 2.69238E+07 4.48731E+05  7478.8      311.62     0.85317    


end timestep


start timestep kper="12" kstp="4" mode="normal"

 UBDSV1 SAVING     FLOW-JA-FACE ON UNIT   1015 AT TIME STEP      4, STRESS PERIOD     12
 UBDSV06 SAVING              WEL IN MODEL MUMODEL          PACKAGE MUMODEL         CONNECTED TO MODEL MUMODEL          PACKAGE WEL-1            ON UNIT   1015 AT TIME STEP      4, STRESS PERIOD     12
 UBDSV06 SAVING             RCHA IN MODEL MUMODEL          PACKAGE MUMODEL         CONNECTED TO MODEL MUMODEL          PACKAGE RCH-1            ON UNIT   1015 AT TIME STEP      4, STRESS PERIOD     12

 WEL PACKAGE (WEL-1) FLOW RATES   PERIOD     12   STEP        4
 -----------------------------------------------
   NUMBER   CELLID                    RATE      
 -----------------------------------------------
     1      (1,5,5)               0.0000000     
     2      (1,11,5)              0.0000000     
     3      (1,5,5)               0.0000000     
 -----------------------------------------------




 CHD PACKAGE (CHD-FROM-IBOUND) FLOW RATES   PERIOD     12   STEP        4
 -----------------------------------------------
   NUMBER   CELLID                    RATE      
 -----------------------------------------------
     1      (1,1,1)              -2512.4627     
     2      (1,1,2)              -2512.4643     
     3      (1,1,3)              -2512.4645     
     4      (1,1,4)              -2512.4634     
     5      (1,1,5)              -2512.4621     
     6      (1,1,6)              -2512.4607     
     7      (1,1,7)              -2512.4591     
     8      (1,1,8)              -2512.4572     
     9      (1,1,9)              -2512.4554     
     10     (1,21,1)             -2512.4562     
     11     (1,21,2)             -2512.4585     
     12     (1,21,3)             -2512.4607     
     13     (1,21,4)             -2512.4624     
     14     (1,21,5)             -2512.4640     
     15     (1,21,6)             -2512.4656     
     16     (1,21,7)             -2512.4664     
     17     (1,21,8)             -2512.4651     
     18     (1,21,9)             -2512.4621     
 -----------------------------------------------




 HEAD WILL BE SAVED ON UNIT 1016 AT END OF TIME STEP    4, STRESS PERIOD   12


  VOLUME BUDGET FOR ENTIRE MODEL AT END OF TIME STEP    4, STRESS PERIOD  12
  ---------------------------------------------------------------------------------------------------

     CUMULATIVE VOLUME      L**3       RATES FOR THIS TIME STEP      L**3/T          PACKAGE NAME    
     ------------------                 ------------------------                     ----------------

           IN:                                      IN:
           ---                                      ---
              STO-SS =     5452921.9455                STO-SS =       39482.6003     STORAGE                          
              STO-SY =      203962.8012                STO-SY =        1466.7100     STORAGE                          
                 WEL =           0.0000                   WEL =           0.0000     WEL-1                            
                RCHA =    32672801.3144                  RCHA =        4275.0000     RCH-1                            
                 CHD =           0.0000                   CHD =           0.0000     CHD-FROM-IBOUND                  

            TOTAL IN =    38329686.0611              TOTAL IN =       45224.3103

          OUT:                                     OUT:
          ----                                     ----
              STO-SS =    23126572.6866                STO-SS =           0.0000     STORAGE                          
              STO-SY =      849754.3320                STO-SY =           0.0000     STORAGE                          
                 WEL =           0.0000                   WEL =           0.0000     WEL-1                            
                RCHA =           0.0000                  RCHA =           0.0000     RCH-1                            
                 CHD =    14353364.7188                   CHD =       45224.3103     CHD-FROM-IBOUND                  

           TOTAL OUT =    38329691.7374             TOTAL OUT =       45224.3103

            IN - OUT =          -5.6763              IN - OUT =       3.9949E-05

 PERCENT DISCREPANCY =          -0.00     PERCENT DISCREPANCY =           0.00




         TIME SUMMARY AT END OF TIME STEP    4 IN STRESS PERIOD   12
                    SECONDS     MINUTES      HOURS       DAYS        YEARS
                    -----------------------------------------------------------
   TIME STEP LENGTH 2.71468E+05  4524.5      75.408      3.1420     8.60231E-03
 STRESS PERIOD TIME 8.43311E+05  14055.      234.25      9.7605     2.67229E-02
         TOTAL TIME 2.71953E+07 4.53255E+05  7554.3      314.76     0.86177    


end timestep


start timestep kper="12" kstp="5" mode="normal"

 UBDSV1 SAVING     FLOW-JA-FACE ON UNIT   1015 AT TIME STEP      5, STRESS PERIOD     12
 UBDSV06 SAVING              WEL IN MODEL MUMODEL          PACKAGE MUMODEL         CONNECTED TO MODEL MUMODEL          PACKAGE WEL-1            ON UNIT   1015 AT TIME STEP      5, STRESS PERIOD     12
 UBDSV06 SAVING             RCHA IN MODEL MUMODEL          PACKAGE MUMODEL         CONNECTED TO MODEL MUMODEL          PACKAGE RCH-1            ON UNIT   1015 AT TIME STEP      5, STRESS PERIOD     12

 WEL PACKAGE (WEL-1) FLOW RATES   PERIOD     12   STEP        5
 -----------------------------------------------
   NUMBER   CELLID                    RATE      
 -----------------------------------------------
     1      (1,5,5)               0.0000000     
     2      (1,11,5)              0.0000000     
     3      (1,5,5)               0.0000000     
 -----------------------------------------------




 CHD PACKAGE (CHD-FROM-IBOUND) FLOW RATES   PERIOD     12   STEP        5
 -----------------------------------------------
   NUMBER   CELLID                    RATE      
 -----------------------------------------------
     1      (1,1,1)              -2510.3224     
     2      (1,1,2)              -2510.3239     
     3      (1,1,3)              -2510.3242     
     4      (1,1,4)              -2510.3231     
     5      (1,1,5)              -2510.3218     
     6      (1,1,6)              -2510.3204     
     7      (1,1,7)              -2510.3189     
     8      (1,1,8)              -2510.3169     
     9      (1,1,9)              -2510.3151     
     10     (1,21,1)             -2510.3160     
     11     (1,21,2)             -2510.3182     
     12     (1,21,3)             -2510.3205     
     13     (1,21,4)             -2510.3221     
     14     (1,21,5)             -2510.3237     
     15     (1,21,6)             -2510.3253     
     16     (1,21,7)             -2510.3261     
     17     (1,21,8)             -2510.3248     
     18     (1,21,9)             -2510.3218     
 -----------------------------------------------




 HEAD WILL BE SAVED ON UNIT 1016 AT END OF TIME STEP    5, STRESS PERIOD   12


  VOLUME BUDGET FOR ENTIRE MODEL AT END OF TIME STEP    5, STRESS PERIOD  12
  ---------------------------------------------------------------------------------------------------

     CUMULATIVE VOLUME      L**3       RATES FOR THIS TIME STEP      L**3/T          PACKAGE NAME    
     ------------------                 ------------------------                     ----------------

           IN:                                      IN:
           ---                                      ---
              STO-SS =     5601647.5760                STO-SS =       39445.6789     STORAGE                          
              STO-SY =      209486.8245                STO-SY =        1465.1063     STORAGE                          
                 WEL =           0.0000                   WEL =           0.0000     WEL-1                            
                RCHA =    32688919.7357                  RCHA =        4275.0000     RCH-1                            
                 CHD =           0.0000                   CHD =           0.0000     CHD-FROM-IBOUND                  

            TOTAL IN =    38500054.1363              TOTAL IN =       45185.7851

          OUT:                                     OUT:
          ----                                     ----
              STO-SS =    23126572.6866                STO-SS =           0.0000     STORAGE                          
              STO-SY =      849754.3320                STO-SY =           0.0000     STORAGE                          
                 WEL =           0.0000                   WEL =           0.0000     WEL-1                            
                RCHA =           0.0000                  RCHA =           0.0000     RCH-1                            
                 CHD =    14523732.7938                   CHD =       45185.7850     CHD-FROM-IBOUND                  

           TOTAL OUT =    38500059.8124             TOTAL OUT =       45185.7850

            IN - OUT =          -5.6760              IN - OUT =       6.7681E-05

 PERCENT DISCREPANCY =          -0.00     PERCENT DISCREPANCY =           0.00




         TIME SUMMARY AT END OF TIME STEP    5 IN STRESS PERIOD   12
                    SECONDS     MINUTES      HOURS       DAYS        YEARS
                    -----------------------------------------------------------
   TIME STEP LENGTH 3.25762E+05  5429.4      90.489      3.7704     1.03228E-02
 STRESS PERIOD TIME 1.16907E+06  19485.      324.74      13.531     3.70457E-02
         TOTAL TIME 2.75211E+07 4.58685E+05  7644.7      318.53     0.87209    


end timestep


start timestep kper="12" kstp="6" mode="normal"

 UBDSV1 SAVING     FLOW-JA-FACE ON UNIT   1015 AT TIME STEP      6, STRESS PERIOD     12
 UBDSV06 SAVING              WEL IN MODEL MUMODEL          PACKAGE MUMODEL         CONNECTED TO MODEL MUMODEL          PACKAGE WEL-1            ON UNIT   1015 AT TIME STEP      6, STRESS PERIOD     12
 UBDSV06 SAVING             RCHA IN MODEL MUMODEL          PACKAGE MUMODEL         CONNECTED TO MODEL MUMODEL          PACKAGE RCH-1            ON UNIT   1015 AT TIME STEP      6, STRESS PERIOD     12

 WEL PACKAGE (WEL-1) FLOW RATES   PERIOD     12   STEP        6
 -----------------------------------------------
   NUMBER   CELLID                    RATE      
 -----------------------------------------------
     1      (1,5,5)               0.0000000     
     2      (1,11,5)              0.0000000     
     3      (1,5,5)               0.0000000     
 -----------------------------------------------




 CHD PACKAGE (CHD-FROM-IBOUND) FLOW RATES   PERIOD     12   STEP        6
 -----------------------------------------------
   NUMBER   CELLID                    RATE      
 -----------------------------------------------
     1      (1,1,1)              -2507.7776     
     2      (1,1,2)              -2507.7791     
     3      (1,1,3)              -2507.7794     
     4      (1,1,4)              -2507.7783     
     5      (1,1,5)              -2507.7770     
     6      (1,1,6)              -2507.7756     
     7      (1,1,7)              -2507.7741     
     8      (1,1,8)              -2507.7721     
     9      (1,1,9)              -2507.7704     
     10     (1,21,1)             -2507.7712     
     11     (1,21,2)             -2507.7735     
     12     (1,21,3)             -2507.7757     
     13     (1,21,4)             -2507.7773     
     14     (1,21,5)             -2507.7789     
     15     (1,21,6)             -2507.7805     
     16     (1,21,7)             -2507.7813     
     17     (1,21,8)             -2507.7800     
     18     (1,21,9)             -2507.7770     
 -----------------------------------------------




 HEAD WILL BE SAVED ON UNIT 1016 AT END OF TIME STEP    6, STRESS PERIOD   12


  VOLUME BUDGET FOR ENTIRE MODEL AT END OF TIME STEP    6, STRESS PERIOD  12
  ---------------------------------------------------------------------------------------------------

     CUMULATIVE VOLUME      L**3       RATES FOR THIS TIME STEP      L**3/T          PACKAGE NAME    
     ------------------                 ------------------------                     ----------------

           IN:                                      IN:
           ---                                      ---
              STO-SS =     5779919.7062                STO-SS =       39401.7784     STORAGE                          
              STO-SY =      216107.0310                STO-SY =        1463.2007     STORAGE                          
                 WEL =           0.0000                   WEL =           0.0000     WEL-1                            
                RCHA =    32708261.8413                  RCHA =        4275.0000     RCH-1                            
                 CHD =           0.0000                   CHD =           0.0000     CHD-FROM-IBOUND                  

            TOTAL IN =    38704288.5786              TOTAL IN =       45139.9791

          OUT:                                     OUT:
          ----                                     ----
              STO-SS =    23126572.6866                STO-SS =           0.0000     STORAGE                          
              STO-SY =      849754.3320                STO-SY =           0.0000     STORAGE                          
                 WEL =           0.0000                   WEL =           0.0000     WEL-1                            
                RCHA =           0.0000                  RCHA =           0.0000     RCH-1                            
                 CHD =    14727967.2356                   CHD =       45139.9790     CHD-FROM-IBOUND                  

           TOTAL OUT =    38704294.2541             TOTAL OUT =       45139.9790

            IN - OUT =          -5.6756              IN - OUT =       1.0847E-04

 PERCENT DISCREPANCY =          -0.00     PERCENT DISCREPANCY =           0.00




         TIME SUMMARY AT END OF TIME STEP    6 IN STRESS PERIOD   12
                    SECONDS     MINUTES      HOURS       DAYS        YEARS
                    -----------------------------------------------------------
   TIME STEP LENGTH 3.90914E+05  6515.2      108.59      4.5245     1.23873E-02
 STRESS PERIOD TIME 1.55999E+06  26000.      433.33      18.055     4.94330E-02
         TOTAL TIME 2.79120E+07 4.65200E+05  7753.3      323.06     0.88448    


end timestep


start timestep kper="12" kstp="7" mode="normal"

 UBDSV1 SAVING     FLOW-JA-FACE ON UNIT   1015 AT TIME STEP      7, STRESS PERIOD     12
 UBDSV06 SAVING              WEL IN MODEL MUMODEL          PACKAGE MUMODEL         CONNECTED TO MODEL MUMODEL          PACKAGE WEL-1            ON UNIT   1015 AT TIME STEP      7, STRESS PERIOD     12
 UBDSV06 SAVING             RCHA IN MODEL MUMODEL          PACKAGE MUMODEL         CONNECTED TO MODEL MUMODEL          PACKAGE RCH-1            ON UNIT   1015 AT TIME STEP      7, STRESS PERIOD     12

 WEL PACKAGE (WEL-1) FLOW RATES   PERIOD     12   STEP        7
 -----------------------------------------------
   NUMBER   CELLID                    RATE      
 -----------------------------------------------
     1      (1,5,5)               0.0000000     
     2      (1,11,5)              0.0000000     
     3      (1,5,5)               0.0000000     
 -----------------------------------------------




 CHD PACKAGE (CHD-FROM-IBOUND) FLOW RATES   PERIOD     12   STEP        7
 -----------------------------------------------
   NUMBER   CELLID                    RATE      
 -----------------------------------------------
     1      (1,1,1)              -2504.7571     
     2      (1,1,2)              -2504.7586     
     3      (1,1,3)              -2504.7589     
     4      (1,1,4)              -2504.7578     
     5      (1,1,5)              -2504.7565     
     6      (1,1,6)              -2504.7552     
     7      (1,1,7)              -2504.7536     
     8      (1,1,8)              -2504.7517     
     9      (1,1,9)              -2504.7500     
     10     (1,21,1)             -2504.7508     
     11     (1,21,2)             -2504.7530     
     12     (1,21,3)             -2504.7552     
     13     (1,21,4)             -2504.7569     
     14     (1,21,5)             -2504.7584     
     15     (1,21,6)             -2504.7600     
     16     (1,21,7)             -2504.7608     
     17     (1,21,8)             -2504.7595     
     18     (1,21,9)             -2504.7565     
 -----------------------------------------------




 HEAD WILL BE SAVED ON UNIT 1016 AT END OF TIME STEP    7, STRESS PERIOD   12


  VOLUME BUDGET FOR ENTIRE MODEL AT END OF TIME STEP    7, STRESS PERIOD  12
  ---------------------------------------------------------------------------------------------------

     CUMULATIVE VOLUME      L**3       RATES FOR THIS TIME STEP      L**3/T          PACKAGE NAME    
     ------------------                 ------------------------                     ----------------

           IN:                                      IN:
           ---                                      ---
              STO-SS =     5993563.3459                STO-SS =       39349.6697     STORAGE                          
              STO-SY =      224039.0094                STO-SY =        1460.9409     STORAGE                          
                 WEL =           0.0000                   WEL =           0.0000     WEL-1                            
                RCHA =    32731472.3680                  RCHA =        4275.0000     RCH-1                            
                 CHD =           0.0000                   CHD =           0.0000     CHD-FROM-IBOUND                  

            TOTAL IN =    38949074.7233              TOTAL IN =       45085.6106

          OUT:                                     OUT:
          ----                                     ----
              STO-SS =    23126572.6866                STO-SS =           0.0000     STORAGE                          
              STO-SY =      849754.3320                STO-SY =           0.0000     STORAGE                          
                 WEL =           0.0000                   WEL =           0.0000     WEL-1                            
                RCHA =           0.0000                  RCHA =           0.0000     RCH-1                            
                 CHD =    14972753.3793                   CHD =       45085.6105     CHD-FROM-IBOUND                  

           TOTAL OUT =    38949080.3979             TOTAL OUT =       45085.6105

            IN - OUT =          -5.6746              IN - OUT =       1.8133E-04

 PERCENT DISCREPANCY =          -0.00     PERCENT DISCREPANCY =           0.00




         TIME SUMMARY AT END OF TIME STEP    7 IN STRESS PERIOD   12
                    SECONDS     MINUTES      HOURS       DAYS        YEARS
                    -----------------------------------------------------------
   TIME STEP LENGTH 4.69097E+05  7818.3      130.30      5.4294     1.48648E-02
 STRESS PERIOD TIME 2.02908E+06  33818.      563.63      23.485     6.42978E-02
         TOTAL TIME 2.83811E+07 4.73018E+05  7883.6      328.48     0.89934    


end timestep


start timestep kper="12" kstp="8" mode="normal"

 UBDSV1 SAVING     FLOW-JA-FACE ON UNIT   1015 AT TIME STEP      8, STRESS PERIOD     12
 UBDSV06 SAVING              WEL IN MODEL MUMODEL          PACKAGE MUMODEL         CONNECTED TO MODEL MUMODEL          PACKAGE WEL-1            ON UNIT   1015 AT TIME STEP      8, STRESS PERIOD     12
 UBDSV06 SAVING             RCHA IN MODEL MUMODEL          PACKAGE MUMODEL         CONNECTED TO MODEL MUMODEL          PACKAGE RCH-1            ON UNIT   1015 AT TIME STEP      8, STRESS PERIOD     12

 WEL PACKAGE (WEL-1) FLOW RATES   PERIOD     12   STEP        8
 -----------------------------------------------
   NUMBER   CELLID                    RATE      
 -----------------------------------------------
     1      (1,5,5)               0.0000000     
     2      (1,11,5)              0.0000000     
     3      (1,5,5)               0.0000000     
 -----------------------------------------------




 CHD PACKAGE (CHD-FROM-IBOUND) FLOW RATES   PERIOD     12   STEP        8
 -----------------------------------------------
   NUMBER   CELLID                    RATE      
 -----------------------------------------------
     1      (1,1,1)              -2501.1793     
     2      (1,1,2)              -2501.1808     
     3      (1,1,3)              -2501.1810     
     4      (1,1,4)              -2501.1800     
     5      (1,1,5)              -2501.1787     
     6      (1,1,6)              -2501.1774     
     7      (1,1,7)              -2501.1759     
     8      (1,1,8)              -2501.1739     
     9      (1,1,9)              -2501.1722     
     10     (1,21,1)             -2501.1731     
     11     (1,21,2)             -2501.1753     
     12     (1,21,3)             -2501.1775     
     13     (1,21,4)             -2501.1791     
     14     (1,21,5)             -2501.1806     
     15     (1,21,6)             -2501.1821     
     16     (1,21,7)             -2501.1829     
     17     (1,21,8)             -2501.1816     
     18     (1,21,9)             -2501.1787     
 -----------------------------------------------




 HEAD WILL BE SAVED ON UNIT 1016 AT END OF TIME STEP    8, STRESS PERIOD   12


  VOLUME BUDGET FOR ENTIRE MODEL AT END OF TIME STEP    8, STRESS PERIOD  12
  ---------------------------------------------------------------------------------------------------

     CUMULATIVE VOLUME      L**3       RATES FOR THIS TIME STEP      L**3/T          PACKAGE NAME    
     ------------------                 ------------------------                     ----------------

           IN:                                      IN:
           ---                                      ---
              STO-SS =     6249533.5538                STO-SS =       39287.9437     STORAGE                          
              STO-SY =      233539.9615                STO-SY =        1458.2669     STORAGE                          
                 WEL =           0.0000                   WEL =           0.0000     WEL-1                            
                RCHA =    32759325.0000                  RCHA =        4275.0000     RCH-1                            
                 CHD =           0.0000                   CHD =           0.0000     CHD-FROM-IBOUND                  

            TOTAL IN =    39242398.5153              TOTAL IN =       45021.2106

          OUT:                                     OUT:
          ----                                     ----
              STO-SS =    23126572.6866                STO-SS =           0.0000     STORAGE                          
              STO-SY =      849754.3320                STO-SY =           0.0000     STORAGE                          
                 WEL =           0.0000                   WEL =           0.0000     WEL-1                            
                RCHA =           0.0000                  RCHA =           0.0000     RCH-1                            
                 CHD =    15266077.1694                   CHD =       45021.2103     CHD-FROM-IBOUND                  

           TOTAL OUT =    39242404.1880             TOTAL OUT =       45021.2103

            IN - OUT =          -5.6726              IN - OUT =       2.9815E-04

 PERCENT DISCREPANCY =          -0.00     PERCENT DISCREPANCY =           0.00




         TIME SUMMARY AT END OF TIME STEP    8 IN STRESS PERIOD   12
                    SECONDS     MINUTES      HOURS       DAYS        YEARS
                    -----------------------------------------------------------
   TIME STEP LENGTH 5.62916E+05  9381.9      156.37      6.5152     1.78377E-02
 STRESS PERIOD TIME 2.59200E+06  43200.      720.00      30.000     8.21355E-02
         TOTAL TIME 2.89440E+07 4.82400E+05  8040.0      335.00     0.91718    


end timestep


start timestep kper="13" kstp="1" mode="normal"


 OUTPUT CONTROL FOR STRESS PERIOD 13 IS REPEATED USING SETTINGS FROM A PREVIOUS STRESS PERIOD.


 STRESS PERIOD 13 IS TRANSIENT


 REUSING WELS FROM LAST STRESS PERIOD

 REUSING CHDS FROM LAST STRESS PERIOD
 UBDSV1 SAVING     FLOW-JA-FACE ON UNIT   1015 AT TIME STEP      1, STRESS PERIOD     13
 UBDSV06 SAVING              WEL IN MODEL MUMODEL          PACKAGE MUMODEL         CONNECTED TO MODEL MUMODEL          PACKAGE WEL-1            ON UNIT   1015 AT TIME STEP      1, STRESS PERIOD     13
 UBDSV06 SAVING             RCHA IN MODEL MUMODEL          PACKAGE MUMODEL         CONNECTED TO MODEL MUMODEL          PACKAGE RCH-1            ON UNIT   1015 AT TIME STEP      1, STRESS PERIOD     13

 WEL PACKAGE (WEL-1) FLOW RATES   PERIOD     13   STEP        1
 -----------------------------------------------
   NUMBER   CELLID                    RATE      
 -----------------------------------------------
     1      (1,5,5)               0.0000000     
     2      (1,11,5)              0.0000000     
     3      (1,5,5)               0.0000000     
 -----------------------------------------------




 CHD PACKAGE (CHD-FROM-IBOUND) FLOW RATES   PERIOD     13   STEP        1
 -----------------------------------------------
   NUMBER   CELLID                    RATE      
 -----------------------------------------------
     1      (1,1,1)              -2500.9617     
     2      (1,1,2)              -2500.9631     
     3      (1,1,3)              -2500.9634     
     4      (1,1,4)              -2500.9624     
     5      (1,1,5)              -2500.9610     
     6      (1,1,6)              -2500.9597     
     7      (1,1,7)              -2500.9582     
     8      (1,1,8)              -2500.9563     
     9      (1,1,9)              -2500.9546     
     10     (1,21,1)             -2500.9555     
     11     (1,21,2)             -2500.9576     
     12     (1,21,3)             -2500.9598     
     13     (1,21,4)             -2500.9614     
     14     (1,21,5)             -2500.9629     
     15     (1,21,6)             -2500.9645     
     16     (1,21,7)             -2500.9652     
     17     (1,21,8)             -2500.9639     
     18     (1,21,9)             -2500.9611     
 -----------------------------------------------




 HEAD WILL BE SAVED ON UNIT 1016 AT END OF TIME STEP    1, STRESS PERIOD   13


  VOLUME BUDGET FOR ENTIRE MODEL AT END OF TIME STEP    1, STRESS PERIOD  13
  ---------------------------------------------------------------------------------------------------

     CUMULATIVE VOLUME      L**3       RATES FOR THIS TIME STEP      L**3/T          PACKAGE NAME    
     ------------------                 ------------------------                     ----------------

           IN:                                      IN:
           ---                                      ---
              STO-SS =     6253619.2864                STO-SS =        2174.5435     STORAGE                          
              STO-SY =      233714.2123                STO-SY =          92.7412     STORAGE                          
                 WEL =           0.0000                   WEL =           0.0000     WEL-1                            
                RCHA =    32839647.6370                  RCHA =       42750.0000     RCH-1                            
                 CHD =           0.0000                   CHD =           0.0000     CHD-FROM-IBOUND                  

            TOTAL IN =    39326981.1357              TOTAL IN =       45017.2847

          OUT:                                     OUT:
          ----                                     ----
              STO-SS =    23126572.6866                STO-SS =           0.0000     STORAGE                          
              STO-SY =      849754.3320                STO-SY =           0.0000     STORAGE                          
                 WEL =           0.0000                   WEL =           0.0000     WEL-1                            
                RCHA =           0.0000                  RCHA =           0.0000     RCH-1                            
                 CHD =    15350659.8039                   CHD =       45017.2922     CHD-FROM-IBOUND                  

           TOTAL OUT =    39326986.8225             TOTAL OUT =       45017.2922

            IN - OUT =          -5.6868              IN - OUT =      -7.5197E-03

 PERCENT DISCREPANCY =          -0.00     PERCENT DISCREPANCY =          -0.00




         TIME SUMMARY AT END OF TIME STEP    1 IN STRESS PERIOD   13
                    SECONDS     MINUTES      HOURS       DAYS        YEARS
                    -----------------------------------------------------------
   TIME STEP LENGTH 1.62336E+05  2705.6      45.093      1.8789     5.14413E-03
 STRESS PERIOD TIME 1.62336E+05  2705.6      45.093      1.8789     5.14413E-03
         TOTAL TIME 2.91063E+07 4.85106E+05  8085.1      336.88     0.92232    


end timestep


start timestep kper="13" kstp="2" mode="normal"

 UBDSV1 SAVING     FLOW-JA-FACE ON UNIT   1015 AT TIME STEP      2, STRESS PERIOD     13
 UBDSV06 SAVING              WEL IN MODEL MUMODEL          PACKAGE MUMODEL         CONNECTED TO MODEL MUMODEL          PACKAGE WEL-1            ON UNIT   1015 AT TIME STEP      2, STRESS PERIOD     13
 UBDSV06 SAVING             RCHA IN MODEL MUMODEL          PACKAGE MUMODEL         CONNECTED TO MODEL MUMODEL          PACKAGE RCH-1            ON UNIT   1015 AT TIME STEP      2, STRESS PERIOD     13

 WEL PACKAGE (WEL-1) FLOW RATES   PERIOD     13   STEP        2
 -----------------------------------------------
   NUMBER   CELLID                    RATE      
 -----------------------------------------------
     1      (1,5,5)               0.0000000     
     2      (1,11,5)              0.0000000     
     3      (1,5,5)               0.0000000     
 -----------------------------------------------




 CHD PACKAGE (CHD-FROM-IBOUND) FLOW RATES   PERIOD     13   STEP        2
 -----------------------------------------------
   NUMBER   CELLID                    RATE      
 -----------------------------------------------
     1      (1,1,1)              -2500.6911     
     2      (1,1,2)              -2500.6925     
     3      (1,1,3)              -2500.6928     
     4      (1,1,4)              -2500.6918     
     5      (1,1,5)              -2500.6905     
     6      (1,1,6)              -2500.6892     
     7      (1,1,7)              -2500.6876     
     8      (1,1,8)              -2500.6857     
     9      (1,1,9)              -2500.6840     
     10     (1,21,1)             -2500.6849     
     11     (1,21,2)             -2500.6871     
     12     (1,21,3)             -2500.6892     
     13     (1,21,4)             -2500.6908     
     14     (1,21,5)             -2500.6924     
     15     (1,21,6)             -2500.6939     
     16     (1,21,7)             -2500.6946     
     17     (1,21,8)             -2500.6933     
     18     (1,21,9)             -2500.6905     
 -----------------------------------------------




 HEAD WILL BE SAVED ON UNIT 1016 AT END OF TIME STEP    2, STRESS PERIOD   13


  VOLUME BUDGET FOR ENTIRE MODEL AT END OF TIME STEP    2, STRESS PERIOD  13
  ---------------------------------------------------------------------------------------------------

     CUMULATIVE VOLUME      L**3       RATES FOR THIS TIME STEP      L**3/T          PACKAGE NAME    
     ------------------                 ------------------------                     ----------------

           IN:                                      IN:
           ---                                      ---
              STO-SS =     6258511.6767                STO-SS =        2169.8915     STORAGE                          
              STO-SY =      233922.8179                STO-SY =          92.5216     STORAGE                          
                 WEL =           0.0000                   WEL =           0.0000     WEL-1                            
                RCHA =    32936034.8015                  RCHA =       42750.0000     RCH-1                            
                 CHD =           0.0000                   CHD =           0.0000     CHD-FROM-IBOUND                  

            TOTAL IN =    39428469.2961              TOTAL IN =       45012.4130

          OUT:                                     OUT:
          ----                                     ----
              STO-SS =    23126572.6866                STO-SS =           0.0000     STORAGE                          
              STO-SY =      849754.3320                STO-SY =           0.0000     STORAGE                          
                 WEL =           0.0000                   WEL =           0.0000     WEL-1                            
                RCHA =           0.0000                  RCHA =           0.0000     RCH-1                            
                 CHD =    15452147.9845                   CHD =       45012.4220     CHD-FROM-IBOUND                  

           TOTAL OUT =    39428475.0031             TOTAL OUT =       45012.4220

            IN - OUT =          -5.7070              IN - OUT =      -8.9587E-03

 PERCENT DISCREPANCY =          -0.00     PERCENT DISCREPANCY =          -0.00




         TIME SUMMARY AT END OF TIME STEP    2 IN STRESS PERIOD   13
                    SECONDS     MINUTES      HOURS       DAYS        YEARS
                    -----------------------------------------------------------
   TIME STEP LENGTH 1.94804E+05  3246.7      54.112      2.2547     6.17295E-03
 STRESS PERIOD TIME 3.57140E+05  5952.3      99.206      4.1336     1.13171E-02
         TOTAL TIME 2.93011E+07 4.88352E+05  8139.2      339.13     0.92850    


end timestep


start timestep kper="13" kstp="3" mode="normal"

 UBDSV1 SAVING     FLOW-JA-FACE ON UNIT   1015 AT TIME STEP      3, STRESS PERIOD     13
 UBDSV06 SAVING              WEL IN MODEL MUMODEL          PACKAGE MUMODEL         CONNECTED TO MODEL MUMODEL          PACKAGE WEL-1            ON UNIT   1015 AT TIME STEP      3, STRESS PERIOD     13
 UBDSV06 SAVING             RCHA IN MODEL MUMODEL          PACKAGE MUMODEL         CONNECTED TO MODEL MUMODEL          PACKAGE RCH-1            ON UNIT   1015 AT TIME STEP      3, STRESS PERIOD     13

 WEL PACKAGE (WEL-1) FLOW RATES   PERIOD     13   STEP        3
 -----------------------------------------------
   NUMBER   CELLID                    RATE      
 -----------------------------------------------
     1      (1,5,5)               0.0000000     
     2      (1,11,5)              0.0000000     
     3      (1,5,5)               0.0000000     
 -----------------------------------------------




 CHD PACKAGE (CHD-FROM-IBOUND) FLOW RATES   PERIOD     13   STEP        3
 -----------------------------------------------
   NUMBER   CELLID                    RATE      
 -----------------------------------------------
     1      (1,1,1)              -2500.3685     
     2      (1,1,2)              -2500.3699     
     3      (1,1,3)              -2500.3702     
     4      (1,1,4)              -2500.3692     
     5      (1,1,5)              -2500.3679     
     6      (1,1,6)              -2500.3666     
     7      (1,1,7)              -2500.3650     
     8      (1,1,8)              -2500.3631     
     9      (1,1,9)              -2500.3615     
     10     (1,21,1)             -2500.3624     
     11     (1,21,2)             -2500.3645     
     12     (1,21,3)             -2500.3666     
     13     (1,21,4)             -2500.3683     
     14     (1,21,5)             -2500.3698     
     15     (1,21,6)             -2500.3713     
     16     (1,21,7)             -2500.3720     
     17     (1,21,8)             -2500.3707     
     18     (1,21,9)             -2500.3679     
 -----------------------------------------------




 HEAD WILL BE SAVED ON UNIT 1016 AT END OF TIME STEP    3, STRESS PERIOD   13


  VOLUME BUDGET FOR ENTIRE MODEL AT END OF TIME STEP    3, STRESS PERIOD  13
  ---------------------------------------------------------------------------------------------------

     CUMULATIVE VOLUME      L**3       RATES FOR THIS TIME STEP      L**3/T          PACKAGE NAME    
     ------------------                 ------------------------                     ----------------

           IN:                                      IN:
           ---                                      ---
              STO-SS =     6264367.5386                STO-SS =        2164.3450     STORAGE                          
              STO-SY =      234172.4361                STO-SY =          92.2597     STORAGE                          
                 WEL =           0.0000                   WEL =           0.0000     WEL-1                            
                RCHA =    33051699.3989                  RCHA =       42750.0000     RCH-1                            
                 CHD =           0.0000                   CHD =           0.0000     CHD-FROM-IBOUND                  

            TOTAL IN =    39550239.3736              TOTAL IN =       45006.6047

          OUT:                                     OUT:
          ----                                     ----
              STO-SS =    23126572.6866                STO-SS =           0.0000     STORAGE                          
              STO-SY =      849754.3320                STO-SY =           0.0000     STORAGE                          
                 WEL =           0.0000                   WEL =           0.0000     WEL-1                            
                RCHA =           0.0000                  RCHA =           0.0000     RCH-1                            
                 CHD =    15573918.0908                   CHD =       45006.6154     CHD-FROM-IBOUND                  

           TOTAL OUT =    39550245.1094             TOTAL OUT =       45006.6154

            IN - OUT =          -5.7358              IN - OUT =      -1.0650E-02

 PERCENT DISCREPANCY =          -0.00     PERCENT DISCREPANCY =          -0.00




         TIME SUMMARY AT END OF TIME STEP    3 IN STRESS PERIOD   13
                    SECONDS     MINUTES      HOURS       DAYS        YEARS
                    -----------------------------------------------------------
   TIME STEP LENGTH 2.33764E+05  3896.1      64.935      2.7056     7.40754E-03
 STRESS PERIOD TIME 5.90904E+05  9848.4      164.14      6.8392     1.87246E-02
         TOTAL TIME 2.95349E+07 4.92248E+05  8204.1      341.84     0.93590    


end timestep


start timestep kper="13" kstp="4" mode="normal"

 UBDSV1 SAVING     FLOW-JA-FACE ON UNIT   1015 AT TIME STEP      4, STRESS PERIOD     13
 UBDSV06 SAVING              WEL IN MODEL MUMODEL          PACKAGE MUMODEL         CONNECTED TO MODEL MUMODEL          PACKAGE WEL-1            ON UNIT   1015 AT TIME STEP      4, STRESS PERIOD     13
 UBDSV06 SAVING             RCHA IN MODEL MUMODEL          PACKAGE MUMODEL         CONNECTED TO MODEL MUMODEL          PACKAGE RCH-1            ON UNIT   1015 AT TIME STEP      4, STRESS PERIOD     13

 WEL PACKAGE (WEL-1) FLOW RATES   PERIOD     13   STEP        4
 -----------------------------------------------
   NUMBER   CELLID                    RATE      
 -----------------------------------------------
     1      (1,5,5)               0.0000000     
     2      (1,11,5)              0.0000000     
     3      (1,5,5)               0.0000000     
 -----------------------------------------------




 CHD PACKAGE (CHD-FROM-IBOUND) FLOW RATES   PERIOD     13   STEP        4
 -----------------------------------------------
   NUMBER   CELLID                    RATE      
 -----------------------------------------------
     1      (1,1,1)              -2499.9844     
     2      (1,1,2)              -2499.9858     
     3      (1,1,3)              -2499.9860     
     4      (1,1,4)              -2499.9851     
     5      (1,1,5)              -2499.9838     
     6      (1,1,6)              -2499.9824     
     7      (1,1,7)              -2499.9809     
     8      (1,1,8)              -2499.9790     
     9      (1,1,9)              -2499.9774     
     10     (1,21,1)             -2499.9783     
     11     (1,21,2)             -2499.9804     
     12     (1,21,3)             -2499.9825     
     13     (1,21,4)             -2499.9841     
     14     (1,21,5)             -2499.9856     
     15     (1,21,6)             -2499.9871     
     16     (1,21,7)             -2499.9879     
     17     (1,21,8)             -2499.9866     
     18     (1,21,9)             -2499.9838     
 -----------------------------------------------




 HEAD WILL BE SAVED ON UNIT 1016 AT END OF TIME STEP    4, STRESS PERIOD   13


  VOLUME BUDGET FOR ENTIRE MODEL AT END OF TIME STEP    4, STRESS PERIOD  13
  ---------------------------------------------------------------------------------------------------

     CUMULATIVE VOLUME      L**3       RATES FOR THIS TIME STEP      L**3/T          PACKAGE NAME    
     ------------------                 ------------------------                     ----------------

           IN:                                      IN:
           ---                                      ---
              STO-SS =     6271373.1299                STO-SS =        2157.7405     STORAGE                          
              STO-SY =      234470.9657                STO-SY =          91.9479     STORAGE                          
                 WEL =           0.0000                   WEL =           0.0000     WEL-1                            
                RCHA =    33190496.9157                  RCHA =       42750.0000     RCH-1                            
                 CHD =           0.0000                   CHD =           0.0000     CHD-FROM-IBOUND                  

            TOTAL IN =    39696341.0112              TOTAL IN =       44999.6884

          OUT:                                     OUT:
          ----                                     ----
              STO-SS =    23126572.6866                STO-SS =           0.0000     STORAGE                          
              STO-SY =      849754.3320                STO-SY =           0.0000     STORAGE                          
                 WEL =           0.0000                   WEL =           0.0000     WEL-1                            
                RCHA =           0.0000                  RCHA =           0.0000     RCH-1                            
                 CHD =    15720019.7694                   CHD =       44999.7010     CHD-FROM-IBOUND                  

           TOTAL OUT =    39696346.7880             TOTAL OUT =       44999.7010

            IN - OUT =          -5.7768              IN - OUT =      -1.2636E-02

 PERCENT DISCREPANCY =          -0.00     PERCENT DISCREPANCY =          -0.00




         TIME SUMMARY AT END OF TIME STEP    4 IN STRESS PERIOD   13
                    SECONDS     MINUTES      HOURS       DAYS        YEARS
                    -----------------------------------------------------------
   TIME STEP LENGTH 2.80517E+05  4675.3      77.921      3.2467     8.88905E-03
 STRESS PERIOD TIME 8.71421E+05  14524.      242.06      10.086     2.76137E-02
         TOTAL TIME 2.98154E+07 4.96924E+05  8282.1      345.09     0.94479    


end timestep


start timestep kper="13" kstp="5" mode="normal"

 UBDSV1 SAVING     FLOW-JA-FACE ON UNIT   1015 AT TIME STEP      5, STRESS PERIOD     13
 UBDSV06 SAVING              WEL IN MODEL MUMODEL          PACKAGE MUMODEL         CONNECTED TO MODEL MUMODEL          PACKAGE WEL-1            ON UNIT   1015 AT TIME STEP      5, STRESS PERIOD     13
 UBDSV06 SAVING             RCHA IN MODEL MUMODEL          PACKAGE MUMODEL         CONNECTED TO MODEL MUMODEL          PACKAGE RCH-1            ON UNIT   1015 AT TIME STEP      5, STRESS PERIOD     13

 WEL PACKAGE (WEL-1) FLOW RATES   PERIOD     13   STEP        5
 -----------------------------------------------
   NUMBER   CELLID                    RATE      
 -----------------------------------------------
     1      (1,5,5)               0.0000000     
     2      (1,11,5)              0.0000000     
     3      (1,5,5)               0.0000000     
 -----------------------------------------------




 CHD PACKAGE (CHD-FROM-IBOUND) FLOW RATES   PERIOD     13   STEP        5
 -----------------------------------------------
   NUMBER   CELLID                    RATE      
 -----------------------------------------------
     1      (1,1,1)              -2499.5276     
     2      (1,1,2)              -2499.5290     
     3      (1,1,3)              -2499.5293     
     4      (1,1,4)              -2499.5283     
     5      (1,1,5)              -2499.5270     
     6      (1,1,6)              -2499.5257     
     7      (1,1,7)              -2499.5242     
     8      (1,1,8)              -2499.5223     
     9      (1,1,9)              -2499.5207     
     10     (1,21,1)             -2499.5216     
     11     (1,21,2)             -2499.5237     
     12     (1,21,3)             -2499.5258     
     13     (1,21,4)             -2499.5274     
     14     (1,21,5)             -2499.5289     
     15     (1,21,6)             -2499.5304     
     16     (1,21,7)             -2499.5311     
     17     (1,21,8)             -2499.5298     
     18     (1,21,9)             -2499.5271     
 -----------------------------------------------




 HEAD WILL BE SAVED ON UNIT 1016 AT END OF TIME STEP    5, STRESS PERIOD   13


  VOLUME BUDGET FOR ENTIRE MODEL AT END OF TIME STEP    5, STRESS PERIOD  13
  ---------------------------------------------------------------------------------------------------

     CUMULATIVE VOLUME      L**3       RATES FOR THIS TIME STEP      L**3/T          PACKAGE NAME    
     ------------------                 ------------------------                     ----------------

           IN:                                      IN:
           ---                                      ---
              STO-SS =     6279749.2450                STO-SS =        2149.8879     STORAGE                          
              STO-SY =      234827.7571                STO-SY =          91.5772     STORAGE                          
                 WEL =           0.0000                   WEL =           0.0000     WEL-1                            
                RCHA =    33357053.9358                  RCHA =       42750.0000     RCH-1                            
                 CHD =           0.0000                   CHD =           0.0000     CHD-FROM-IBOUND                  

            TOTAL IN =    39871630.9379              TOTAL IN =       44991.4651

          OUT:                                     OUT:
          ----                                     ----
              STO-SS =    23126572.6866                STO-SS =           0.0000     STORAGE                          
              STO-SY =      849754.3320                STO-SY =           0.0000     STORAGE                          
                 WEL =           0.0000                   WEL =           0.0000     WEL-1                            
                RCHA =           0.0000                  RCHA =           0.0000     RCH-1                            
                 CHD =    15895309.7544                   CHD =       44991.4801     CHD-FROM-IBOUND                  

           TOTAL OUT =    39871636.7730             TOTAL OUT =       44991.4801

            IN - OUT =          -5.8351              IN - OUT =      -1.4958E-02

 PERCENT DISCREPANCY =          -0.00     PERCENT DISCREPANCY =          -0.00




         TIME SUMMARY AT END OF TIME STEP    5 IN STRESS PERIOD   13
                    SECONDS     MINUTES      HOURS       DAYS        YEARS
                    -----------------------------------------------------------
   TIME STEP LENGTH 3.36621E+05  5610.3      93.506      3.8961     1.06669E-02
 STRESS PERIOD TIME 1.20804E+06  20134.      335.57      13.982     3.82805E-02
         TOTAL TIME 3.01520E+07 5.02534E+05  8375.6      348.98     0.95546    


end timestep


start timestep kper="13" kstp="6" mode="normal"

 UBDSV1 SAVING     FLOW-JA-FACE ON UNIT   1015 AT TIME STEP      6, STRESS PERIOD     13
 UBDSV06 SAVING              WEL IN MODEL MUMODEL          PACKAGE MUMODEL         CONNECTED TO MODEL MUMODEL          PACKAGE WEL-1            ON UNIT   1015 AT TIME STEP      6, STRESS PERIOD     13
 UBDSV06 SAVING             RCHA IN MODEL MUMODEL          PACKAGE MUMODEL         CONNECTED TO MODEL MUMODEL          PACKAGE RCH-1            ON UNIT   1015 AT TIME STEP      6, STRESS PERIOD     13

 WEL PACKAGE (WEL-1) FLOW RATES   PERIOD     13   STEP        6
 -----------------------------------------------
   NUMBER   CELLID                    RATE      
 -----------------------------------------------
     1      (1,5,5)               0.0000000     
     2      (1,11,5)              0.0000000     
     3      (1,5,5)               0.0000000     
 -----------------------------------------------




 CHD PACKAGE (CHD-FROM-IBOUND) FLOW RATES   PERIOD     13   STEP        6
 -----------------------------------------------
   NUMBER   CELLID                    RATE      
 -----------------------------------------------
     1      (1,1,1)              -2498.9856     
     2      (1,1,2)              -2498.9870     
     3      (1,1,3)              -2498.9872     
     4      (1,1,4)              -2498.9863     
     5      (1,1,5)              -2498.9850     
     6      (1,1,6)              -2498.9837     
     7      (1,1,7)              -2498.9822     
     8      (1,1,8)              -2498.9803     
     9      (1,1,9)              -2498.9787     
     10     (1,21,1)             -2498.9796     
     11     (1,21,2)             -2498.9817     
     12     (1,21,3)             -2498.9838     
     13     (1,21,4)             -2498.9854     
     14     (1,21,5)             -2498.9868     
     15     (1,21,6)             -2498.9883     
     16     (1,21,7)             -2498.9890     
     17     (1,21,8)             -2498.9877     
     18     (1,21,9)             -2498.9850     
 -----------------------------------------------




 HEAD WILL BE SAVED ON UNIT 1016 AT END OF TIME STEP    6, STRESS PERIOD   13


  VOLUME BUDGET FOR ENTIRE MODEL AT END OF TIME STEP    6, STRESS PERIOD  13
  ---------------------------------------------------------------------------------------------------

     CUMULATIVE VOLUME      L**3       RATES FOR THIS TIME STEP      L**3/T          PACKAGE NAME    
     ------------------                 ------------------------                     ----------------

           IN:                                      IN:
           ---                                      ---
              STO-SS =     6289757.0097                STO-SS =        2140.5679     STORAGE                          
              STO-SY =      235253.8505                STO-SY =          91.1374     STORAGE                          
                 WEL =           0.0000                   WEL =           0.0000     WEL-1                            
                RCHA =    33556922.3601                  RCHA =       42750.0000     RCH-1                            
                 CHD =           0.0000                   CHD =           0.0000     CHD-FROM-IBOUND                  

            TOTAL IN =    40081933.2202              TOTAL IN =       44981.7054

          OUT:                                     OUT:
          ----                                     ----
              STO-SS =    23126572.6866                STO-SS =           0.0000     STORAGE                          
              STO-SY =      849754.3320                STO-SY =           0.0000     STORAGE                          
                 WEL =           0.0000                   WEL =           0.0000     WEL-1                            
                RCHA =           0.0000                  RCHA =           0.0000     RCH-1                            
                 CHD =    16105612.1194                   CHD =       44981.7230     CHD-FROM-IBOUND                  

           TOTAL OUT =    40081939.1379             TOTAL OUT =       44981.7230

            IN - OUT =          -5.9177              IN - OUT =      -1.7667E-02

 PERCENT DISCREPANCY =          -0.00     PERCENT DISCREPANCY =          -0.00




         TIME SUMMARY AT END OF TIME STEP    6 IN STRESS PERIOD   13
                    SECONDS     MINUTES      HOURS       DAYS        YEARS
                    -----------------------------------------------------------
   TIME STEP LENGTH 4.03945E+05  6732.4      112.21      4.6753     1.28002E-02
 STRESS PERIOD TIME 1.61199E+06  26866.      447.77      18.657     5.10808E-02
         TOTAL TIME 3.05560E+07 5.09266E+05  8487.8      353.66     0.96826    


end timestep


start timestep kper="13" kstp="7" mode="normal"

 UBDSV1 SAVING     FLOW-JA-FACE ON UNIT   1015 AT TIME STEP      7, STRESS PERIOD     13
 UBDSV06 SAVING              WEL IN MODEL MUMODEL          PACKAGE MUMODEL         CONNECTED TO MODEL MUMODEL          PACKAGE WEL-1            ON UNIT   1015 AT TIME STEP      7, STRESS PERIOD     13
 UBDSV06 SAVING             RCHA IN MODEL MUMODEL          PACKAGE MUMODEL         CONNECTED TO MODEL MUMODEL          PACKAGE RCH-1            ON UNIT   1015 AT TIME STEP      7, STRESS PERIOD     13

 WEL PACKAGE (WEL-1) FLOW RATES   PERIOD     13   STEP        7
 -----------------------------------------------
   NUMBER   CELLID                    RATE      
 -----------------------------------------------
     1      (1,5,5)               0.0000000     
     2      (1,11,5)              0.0000000     
     3      (1,5,5)               0.0000000     
 -----------------------------------------------




 CHD PACKAGE (CHD-FROM-IBOUND) FLOW RATES   PERIOD     13   STEP        7
 -----------------------------------------------
   NUMBER   CELLID                    RATE      
 -----------------------------------------------
     1      (1,1,1)              -2498.3436     
     2      (1,1,2)              -2498.3450     
     3      (1,1,3)              -2498.3452     
     4      (1,1,4)              -2498.3443     
     5      (1,1,5)              -2498.3430     
     6      (1,1,6)              -2498.3417     
     7      (1,1,7)              -2498.3402     
     8      (1,1,8)              -2498.3383     
     9      (1,1,9)              -2498.3367     
     10     (1,21,1)             -2498.3377     
     11     (1,21,2)             -2498.3397     
     12     (1,21,3)             -2498.3418     
     13     (1,21,4)             -2498.3434     
     14     (1,21,5)             -2498.3449     
     15     (1,21,6)             -2498.3463     
     16     (1,21,7)             -2498.3470     
     17     (1,21,8)             -2498.3457     
     18     (1,21,9)             -2498.3430     
 -----------------------------------------------




 HEAD WILL BE SAVED ON UNIT 1016 AT END OF TIME STEP    7, STRESS PERIOD   13


  VOLUME BUDGET FOR ENTIRE MODEL AT END OF TIME STEP    7, STRESS PERIOD  13
  ---------------------------------------------------------------------------------------------------

     CUMULATIVE VOLUME      L**3       RATES FOR THIS TIME STEP      L**3/T          PACKAGE NAME    
     ------------------                 ------------------------                     ----------------

           IN:                                      IN:
           ---                                      ---
              STO-SS =     6301704.4001                STO-SS =        2129.5299     STORAGE                          
              STO-SY =      235762.2408                STO-SY =          90.6166     STORAGE                          
                 WEL =           0.0000                   WEL =           0.0000     WEL-1                            
                RCHA =    33796764.4691                  RCHA =       42750.0000     RCH-1                            
                 CHD =           0.0000                   CHD =           0.0000     CHD-FROM-IBOUND                  

            TOTAL IN =    40334231.1100              TOTAL IN =       44970.1465

          OUT:                                     OUT:
          ----                                     ----
              STO-SS =    23126572.6866                STO-SS =           0.0000     STORAGE                          
              STO-SY =      849754.3320                STO-SY =           0.0000     STORAGE                          
                 WEL =           0.0000                   WEL =           0.0000     WEL-1                            
                RCHA =           0.0000                  RCHA =           0.0000     RCH-1                            
                 CHD =    16357910.1258                   CHD =       44970.1673     CHD-FROM-IBOUND                  

           TOTAL OUT =    40334237.1444             TOTAL OUT =       44970.1673

            IN - OUT =          -6.0344              IN - OUT =      -2.0804E-02

 PERCENT DISCREPANCY =          -0.00     PERCENT DISCREPANCY =          -0.00




         TIME SUMMARY AT END OF TIME STEP    7 IN STRESS PERIOD   13
                    SECONDS     MINUTES      HOURS       DAYS        YEARS
                    -----------------------------------------------------------
   TIME STEP LENGTH 4.84734E+05  8078.9      134.65      5.6103     1.53603E-02
 STRESS PERIOD TIME 2.09672E+06  34945.      582.42      24.268     6.64410E-02
         TOTAL TIME 3.10407E+07 5.17345E+05  8622.4      359.27     0.98362    


end timestep


start timestep kper="13" kstp="8" mode="normal"

 UBDSV1 SAVING     FLOW-JA-FACE ON UNIT   1015 AT TIME STEP      8, STRESS PERIOD     13
 UBDSV06 SAVING              WEL IN MODEL MUMODEL          PACKAGE MUMODEL         CONNECTED TO MODEL MUMODEL          PACKAGE WEL-1            ON UNIT   1015 AT TIME STEP      8, STRESS PERIOD     13
 UBDSV06 SAVING             RCHA IN MODEL MUMODEL          PACKAGE MUMODEL         CONNECTED TO MODEL MUMODEL          PACKAGE RCH-1            ON UNIT   1015 AT TIME STEP      8, STRESS PERIOD     13

 WEL PACKAGE (WEL-1) FLOW RATES   PERIOD     13   STEP        8
 -----------------------------------------------
   NUMBER   CELLID                    RATE      
 -----------------------------------------------
     1      (1,5,5)               0.0000000     
     2      (1,11,5)              0.0000000     
     3      (1,5,5)               0.0000000     
 -----------------------------------------------




 CHD PACKAGE (CHD-FROM-IBOUND) FLOW RATES   PERIOD     13   STEP        8
 -----------------------------------------------
   NUMBER   CELLID                    RATE      
 -----------------------------------------------
     1      (1,1,1)              -2497.5852     
     2      (1,1,2)              -2497.5865     
     3      (1,1,3)              -2497.5867     
     4      (1,1,4)              -2497.5858     
     5      (1,1,5)              -2497.5846     
     6      (1,1,6)              -2497.5833     
     7      (1,1,7)              -2497.5818     
     8      (1,1,8)              -2497.5799     
     9      (1,1,9)              -2497.5783     
     10     (1,21,1)             -2497.5793     
     11     (1,21,2)             -2497.5813     
     12     (1,21,3)             -2497.5834     
     13     (1,21,4)             -2497.5850     
     14     (1,21,5)             -2497.5864     
     15     (1,21,6)             -2497.5879     
     16     (1,21,7)             -2497.5885     
     17     (1,21,8)             -2497.5872     
     18     (1,21,9)             -2497.5846     
 -----------------------------------------------




 HEAD WILL BE SAVED ON UNIT 1016 AT END OF TIME STEP    8, STRESS PERIOD   13


  VOLUME BUDGET FOR ENTIRE MODEL AT END OF TIME STEP    8, STRESS PERIOD  13
  ---------------------------------------------------------------------------------------------------

     CUMULATIVE VOLUME      L**3       RATES FOR THIS TIME STEP      L**3/T          PACKAGE NAME    
     ------------------                 ------------------------                     ----------------

           IN:                                      IN:
           ---                                      ---
              STO-SS =     6315953.4763                STO-SS =        2116.4896     STORAGE                          
              STO-SY =      236368.1682                STO-SY =          90.0016     STORAGE                          
                 WEL =           0.0000                   WEL =           0.0000     WEL-1                            
                RCHA =    34084575.0000                  RCHA =       42750.0000     RCH-1                            
                 CHD =           0.0000                   CHD =           0.0000     CHD-FROM-IBOUND                  

            TOTAL IN =    40636896.6445              TOTAL IN =       44956.4912

          OUT:                                     OUT:
          ----                                     ----
              STO-SS =    23126572.6866                STO-SS =           0.0000     STORAGE                          
              STO-SY =      849754.3320                STO-SY =           0.0000     STORAGE                          
                 WEL =           0.0000                   WEL =           0.0000     WEL-1                            
                RCHA =           0.0000                  RCHA =           0.0000     RCH-1                            
                 CHD =    16660575.8247                   CHD =       44956.5156     CHD-FROM-IBOUND                  

           TOTAL OUT =    40636902.8433             TOTAL OUT =       44956.5156

            IN - OUT =          -6.1987              IN - OUT =      -2.4411E-02

 PERCENT DISCREPANCY =          -0.00     PERCENT DISCREPANCY =          -0.00




         TIME SUMMARY AT END OF TIME STEP    8 IN STRESS PERIOD   13
                    SECONDS     MINUTES      HOURS       DAYS        YEARS
                    -----------------------------------------------------------
   TIME STEP LENGTH 5.81680E+05  9694.7      161.58      6.7324     1.84323E-02
 STRESS PERIOD TIME 2.67840E+06  44640.      744.00      31.000     8.48734E-02
         TOTAL TIME 3.16224E+07 5.27040E+05  8784.0      366.00      1.0021    


end timestep


start timestep kper="14" kstp="1" mode="normal"


 OUTPUT CONTROL FOR STRESS PERIOD 14 IS REPEATED USING SETTINGS FROM A PREVIOUS STRESS PERIOD.


 STRESS PERIOD 14 IS TRANSIENT

 --------------------------------------------------------------------
  WEL NO.    LAYER    ROW     COL     STRESS RATE         IFACE      
 --------------------------------------------------------------------
     1         1       5       5    -20000.0000       0.00000000     
     2         1      11       5     0.00000000       0.00000000     
     3         1       5       5     0.00000000       0.00000000     
 --------------------------------------------------------------------



 REUSING CHDS FROM LAST STRESS PERIOD
 UBDSV1 SAVING     FLOW-JA-FACE ON UNIT   1015 AT TIME STEP      1, STRESS PERIOD     14
 UBDSV06 SAVING              WEL IN MODEL MUMODEL          PACKAGE MUMODEL         CONNECTED TO MODEL MUMODEL          PACKAGE WEL-1            ON UNIT   1015 AT TIME STEP      1, STRESS PERIOD     14
 UBDSV06 SAVING             RCHA IN MODEL MUMODEL          PACKAGE MUMODEL         CONNECTED TO MODEL MUMODEL          PACKAGE RCH-1            ON UNIT   1015 AT TIME STEP      1, STRESS PERIOD     14

 WEL PACKAGE (WEL-1) FLOW RATES   PERIOD     14   STEP        1
 -----------------------------------------------
   NUMBER   CELLID                    RATE      
 -----------------------------------------------
     1      (1,5,5)              -20000.000     
     2      (1,11,5)              0.0000000     
     3      (1,5,5)               0.0000000     
 -----------------------------------------------




 CHD PACKAGE (CHD-FROM-IBOUND) FLOW RATES   PERIOD     14   STEP        1
 -----------------------------------------------
   NUMBER   CELLID                    RATE      
 -----------------------------------------------
     1      (1,1,1)              -2498.2248     
     2      (1,1,2)              -2498.2261     
     3      (1,1,3)              -2498.2263     
     4      (1,1,4)              -2498.2254     
     5      (1,1,5)              -2498.2241     
     6      (1,1,6)              -2498.2229     
     7      (1,1,7)              -2498.2214     
     8      (1,1,8)              -2498.2195     
     9      (1,1,9)              -2498.2179     
     10     (1,21,1)             -2498.2189     
     11     (1,21,2)             -2498.2209     
     12     (1,21,3)             -2498.2230     
     13     (1,21,4)             -2498.2245     
     14     (1,21,5)             -2498.2260     
     15     (1,21,6)             -2498.2274     
     16     (1,21,7)             -2498.2281     
     17     (1,21,8)             -2498.2268     
     18     (1,21,9)             -2498.2242     
 -----------------------------------------------




 HEAD WILL BE SAVED ON UNIT 1016 AT END OF TIME STEP    1, STRESS PERIOD   14


  VOLUME BUDGET FOR ENTIRE MODEL AT END OF TIME STEP    1, STRESS PERIOD  14
  ---------------------------------------------------------------------------------------------------

     CUMULATIVE VOLUME      L**3       RATES FOR THIS TIME STEP      L**3/T          PACKAGE NAME    
     ------------------                 ------------------------                     ----------------

           IN:                                      IN:
           ---                                      ---
              STO-SS =     6351224.4642                STO-SS =       18772.2264     STORAGE                          
              STO-SY =      237675.9434                STO-SY =         696.0353     STORAGE                          
                 WEL =           0.0000                   WEL =           0.0000     WEL-1                            
                RCHA =    34245220.2741                  RCHA =       85500.0000     RCH-1                            
                 CHD =           0.0000                   CHD =           0.0000     CHD-FROM-IBOUND                  

            TOTAL IN =    40834120.6817              TOTAL IN =      104968.2617

          OUT:                                     OUT:
          ----                                     ----
              STO-SS =    23199084.0088                STO-SS =       38592.5953     STORAGE                          
              STO-SY =      852399.1333                STO-SY =        1407.6387     STORAGE                          
                 WEL =       37577.8419                   WEL =       20000.0000     WEL-1                            
                RCHA =           0.0000                  RCHA =           0.0000     RCH-1                            
                 CHD =    16745065.8974                   CHD =       44968.0282     CHD-FROM-IBOUND                  

           TOTAL OUT =    40834126.8814             TOTAL OUT =      104968.2622

            IN - OUT =          -6.1997              IN - OUT =      -5.0026E-04

 PERCENT DISCREPANCY =          -0.00     PERCENT DISCREPANCY =          -0.00




         TIME SUMMARY AT END OF TIME STEP    1 IN STRESS PERIOD   14
                    SECONDS     MINUTES      HOURS       DAYS        YEARS
                    -----------------------------------------------------------
   TIME STEP LENGTH 1.62336E+05  2705.6      45.093      1.8789     5.14413E-03
 STRESS PERIOD TIME 1.62336E+05  2705.6      45.093      1.8789     5.14413E-03
         TOTAL TIME 3.17847E+07 5.29746E+05  8829.1      367.88      1.0072    


end timestep


start timestep kper="14" kstp="2" mode="normal"

 UBDSV1 SAVING     FLOW-JA-FACE ON UNIT   1015 AT TIME STEP      2, STRESS PERIOD     14
 UBDSV06 SAVING              WEL IN MODEL MUMODEL          PACKAGE MUMODEL         CONNECTED TO MODEL MUMODEL          PACKAGE WEL-1            ON UNIT   1015 AT TIME STEP      2, STRESS PERIOD     14
 UBDSV06 SAVING             RCHA IN MODEL MUMODEL          PACKAGE MUMODEL         CONNECTED TO MODEL MUMODEL          PACKAGE RCH-1            ON UNIT   1015 AT TIME STEP      2, STRESS PERIOD     14

 WEL PACKAGE (WEL-1) FLOW RATES   PERIOD     14   STEP        2
 -----------------------------------------------
   NUMBER   CELLID                    RATE      
 -----------------------------------------------
     1      (1,5,5)              -20000.000     
     2      (1,11,5)              0.0000000     
     3      (1,5,5)               0.0000000     
 -----------------------------------------------




 CHD PACKAGE (CHD-FROM-IBOUND) FLOW RATES   PERIOD     14   STEP        2
 -----------------------------------------------
   NUMBER   CELLID                    RATE      
 -----------------------------------------------
     1      (1,1,1)              -2499.0327     
     2      (1,1,2)              -2499.0340     
     3      (1,1,3)              -2499.0342     
     4      (1,1,4)              -2499.0333     
     5      (1,1,5)              -2499.0321     
     6      (1,1,6)              -2499.0308     
     7      (1,1,7)              -2499.0293     
     8      (1,1,8)              -2499.0275     
     9      (1,1,9)              -2499.0259     
     10     (1,21,1)             -2499.0269     
     11     (1,21,2)             -2499.0289     
     12     (1,21,3)             -2499.0309     
     13     (1,21,4)             -2499.0325     
     14     (1,21,5)             -2499.0340     
     15     (1,21,6)             -2499.0354     
     16     (1,21,7)             -2499.0360     
     17     (1,21,8)             -2499.0347     
     18     (1,21,9)             -2499.0322     
 -----------------------------------------------




 HEAD WILL BE SAVED ON UNIT 1016 AT END OF TIME STEP    2, STRESS PERIOD   14


  VOLUME BUDGET FOR ENTIRE MODEL AT END OF TIME STEP    2, STRESS PERIOD  14
  ---------------------------------------------------------------------------------------------------

     CUMULATIVE VOLUME      L**3       RATES FOR THIS TIME STEP      L**3/T          PACKAGE NAME    
     ------------------                 ------------------------                     ----------------

           IN:                                      IN:
           ---                                      ---
              STO-SS =     6392820.0035                STO-SS =       18448.6110     STORAGE                          
              STO-SY =      239221.4901                STO-SY =         685.4867     STORAGE                          
                 WEL =           0.0000                   WEL =           0.0000     WEL-1                            
                RCHA =    34437994.6030                  RCHA =       85500.0000     RCH-1                            
                 CHD =           0.0000                   CHD =           0.0000     CHD-FROM-IBOUND                  

            TOTAL IN =    41070036.0966              TOTAL IN =      104634.0978

          OUT:                                     OUT:
          ----                                     ----
              STO-SS =    23285339.8236                STO-SS =       38256.5055     STORAGE                          
              STO-SY =      855544.4479                STO-SY =        1395.0218     STORAGE                          
                 WEL =       82671.2522                   WEL =       20000.0000     WEL-1                            
                RCHA =           0.0000                  RCHA =           0.0000     RCH-1                            
                 CHD =    16846486.7745                   CHD =       44982.5713     CHD-FROM-IBOUND                  

           TOTAL OUT =    41070042.2982             TOTAL OUT =      104634.0986

            IN - OUT =          -6.2016              IN - OUT =      -8.4376E-04

 PERCENT DISCREPANCY =          -0.00     PERCENT DISCREPANCY =          -0.00




         TIME SUMMARY AT END OF TIME STEP    2 IN STRESS PERIOD   14
                    SECONDS     MINUTES      HOURS       DAYS        YEARS
                    -----------------------------------------------------------
   TIME STEP LENGTH 1.94804E+05  3246.7      54.112      2.2547     6.17295E-03
 STRESS PERIOD TIME 3.57140E+05  5952.3      99.206      4.1336     1.13171E-02
         TOTAL TIME 3.19795E+07 5.32992E+05  8883.2      370.13      1.0134    


end timestep


start timestep kper="14" kstp="3" mode="normal"

 UBDSV1 SAVING     FLOW-JA-FACE ON UNIT   1015 AT TIME STEP      3, STRESS PERIOD     14
 UBDSV06 SAVING              WEL IN MODEL MUMODEL          PACKAGE MUMODEL         CONNECTED TO MODEL MUMODEL          PACKAGE WEL-1            ON UNIT   1015 AT TIME STEP      3, STRESS PERIOD     14
 UBDSV06 SAVING             RCHA IN MODEL MUMODEL          PACKAGE MUMODEL         CONNECTED TO MODEL MUMODEL          PACKAGE RCH-1            ON UNIT   1015 AT TIME STEP      3, STRESS PERIOD     14

 WEL PACKAGE (WEL-1) FLOW RATES   PERIOD     14   STEP        3
 -----------------------------------------------
   NUMBER   CELLID                    RATE      
 -----------------------------------------------
     1      (1,5,5)              -20000.000     
     2      (1,11,5)              0.0000000     
     3      (1,5,5)               0.0000000     
 -----------------------------------------------




 CHD PACKAGE (CHD-FROM-IBOUND) FLOW RATES   PERIOD     14   STEP        3
 -----------------------------------------------
   NUMBER   CELLID                    RATE      
 -----------------------------------------------
     1      (1,1,1)              -2499.9978     
     2      (1,1,2)              -2499.9990     
     3      (1,1,3)              -2499.9993     
     4      (1,1,4)              -2499.9984     
     5      (1,1,5)              -2499.9970     
     6      (1,1,6)              -2499.9959     
     7      (1,1,7)              -2499.9944     
     8      (1,1,8)              -2499.9926     
     9      (1,1,9)              -2499.9910     
     10     (1,21,1)             -2499.9920     
     11     (1,21,2)             -2499.9939     
     12     (1,21,3)             -2499.9960     
     13     (1,21,4)             -2499.9975     
     14     (1,21,5)             -2499.9990     
     15     (1,21,6)             -2500.0004     
     16     (1,21,7)             -2500.0010     
     17     (1,21,8)             -2499.9997     
     18     (1,21,9)             -2499.9972     
 -----------------------------------------------




 HEAD WILL BE SAVED ON UNIT 1016 AT END OF TIME STEP    3, STRESS PERIOD   14


  VOLUME BUDGET FOR ENTIRE MODEL AT END OF TIME STEP    3, STRESS PERIOD  14
  ---------------------------------------------------------------------------------------------------

     CUMULATIVE VOLUME      L**3       RATES FOR THIS TIME STEP      L**3/T          PACKAGE NAME    
     ------------------                 ------------------------                     ----------------

           IN:                                      IN:
           ---                                      ---
              STO-SS =     6441736.1393                STO-SS =       18079.5581     STORAGE                          
              STO-SY =      241043.6436                STO-SY =         673.4737     STORAGE                          
                 WEL =           0.0000                   WEL =           0.0000     WEL-1                            
                RCHA =    34669323.7977                  RCHA =       85500.0000     RCH-1                            
                 CHD =           0.0000                   CHD =           0.0000     CHD-FROM-IBOUND                  

            TOTAL IN =    41352103.5806              TOTAL IN =      104253.0317

          OUT:                                     OUT:
          ----                                     ----
              STO-SS =    23387807.7730                STO-SS =       37872.4773     STORAGE                          
              STO-SY =      859279.8428                STO-SY =        1380.6137     STORAGE                          
                 WEL =      136783.3445                   WEL =       20000.0000     WEL-1                            
                RCHA =           0.0000                  RCHA =           0.0000     RCH-1                            
                 CHD =    16968238.8256                   CHD =       44999.9421     CHD-FROM-IBOUND                  

           TOTAL OUT =    41352109.7859             TOTAL OUT =      104253.0331

            IN - OUT =          -6.2054              IN - OUT =      -1.3974E-03

 PERCENT DISCREPANCY =          -0.00     PERCENT DISCREPANCY =          -0.00




         TIME SUMMARY AT END OF TIME STEP    3 IN STRESS PERIOD   14
                    SECONDS     MINUTES      HOURS       DAYS        YEARS
                    -----------------------------------------------------------
   TIME STEP LENGTH 2.33764E+05  3896.1      64.935      2.7056     7.40754E-03
 STRESS PERIOD TIME 5.90904E+05  9848.4      164.14      6.8392     1.87246E-02
         TOTAL TIME 3.22133E+07 5.36888E+05  8948.1      372.84      1.0208    


end timestep


start timestep kper="14" kstp="4" mode="normal"

 UBDSV1 SAVING     FLOW-JA-FACE ON UNIT   1015 AT TIME STEP      4, STRESS PERIOD     14
 UBDSV06 SAVING              WEL IN MODEL MUMODEL          PACKAGE MUMODEL         CONNECTED TO MODEL MUMODEL          PACKAGE WEL-1            ON UNIT   1015 AT TIME STEP      4, STRESS PERIOD     14
 UBDSV06 SAVING             RCHA IN MODEL MUMODEL          PACKAGE MUMODEL         CONNECTED TO MODEL MUMODEL          PACKAGE RCH-1            ON UNIT   1015 AT TIME STEP      4, STRESS PERIOD     14

 WEL PACKAGE (WEL-1) FLOW RATES   PERIOD     14   STEP        4
 -----------------------------------------------
   NUMBER   CELLID                    RATE      
 -----------------------------------------------
     1      (1,5,5)              -20000.000     
     2      (1,11,5)              0.0000000     
     3      (1,5,5)               0.0000000     
 -----------------------------------------------




 CHD PACKAGE (CHD-FROM-IBOUND) FLOW RATES   PERIOD     14   STEP        4
 -----------------------------------------------
   NUMBER   CELLID                    RATE      
 -----------------------------------------------
     1      (1,1,1)              -2501.1494     
     2      (1,1,2)              -2501.1507     
     3      (1,1,3)              -2501.1509     
     4      (1,1,4)              -2501.1500     
     5      (1,1,5)              -2501.1485     
     6      (1,1,6)              -2501.1475     
     7      (1,1,7)              -2501.1461     
     8      (1,1,8)              -2501.1442     
     9      (1,1,9)              -2501.1427     
     10     (1,21,1)             -2501.1437     
     11     (1,21,2)             -2501.1456     
     12     (1,21,3)             -2501.1477     
     13     (1,21,4)             -2501.1492     
     14     (1,21,5)             -2501.1507     
     15     (1,21,6)             -2501.1521     
     16     (1,21,7)             -2501.1527     
     17     (1,21,8)             -2501.1514     
     18     (1,21,9)             -2501.1489     
 -----------------------------------------------




 HEAD WILL BE SAVED ON UNIT 1016 AT END OF TIME STEP    4, STRESS PERIOD   14


  VOLUME BUDGET FOR ENTIRE MODEL AT END OF TIME STEP    4, STRESS PERIOD  14
  ---------------------------------------------------------------------------------------------------

     CUMULATIVE VOLUME      L**3       RATES FOR THIS TIME STEP      L**3/T          PACKAGE NAME    
     ------------------                 ------------------------                     ----------------

           IN:                                      IN:
           ---                                      ---
              STO-SS =     6500330.8123                STO-SS =       18047.3133     STORAGE                          
              STO-SY =      243232.5268                STO-SY =         674.1818     STORAGE                          
                 WEL =           0.0000                   WEL =           0.0000     WEL-1                            
                RCHA =    34946918.8313                  RCHA =       85500.0000     RCH-1                            
                 CHD =           0.0000                   CHD =           0.0000     CHD-FROM-IBOUND                  

            TOTAL IN =    41690482.1704              TOTAL IN =      104221.4951

          OUT:                                     OUT:
          ----                                     ----
              STO-SS =    23510606.2610                STO-SS =       37822.2571     STORAGE                          
              STO-SY =      863755.6689                STO-SY =        1378.5662     STORAGE                          
                 WEL =      201717.8553                   WEL =       20000.0000     WEL-1                            
                RCHA =           0.0000                  RCHA =           0.0000     RCH-1                            
                 CHD =    17114408.5908                   CHD =       45020.6719     CHD-FROM-IBOUND                  

           TOTAL OUT =    41690488.3760             TOTAL OUT =      104221.4952

            IN - OUT =          -6.2056              IN - OUT =      -7.5643E-05

 PERCENT DISCREPANCY =          -0.00     PERCENT DISCREPANCY =          -0.00




         TIME SUMMARY AT END OF TIME STEP    4 IN STRESS PERIOD   14
                    SECONDS     MINUTES      HOURS       DAYS        YEARS
                    -----------------------------------------------------------
   TIME STEP LENGTH 2.80517E+05  4675.3      77.921      3.2467     8.88905E-03
 STRESS PERIOD TIME 8.71421E+05  14524.      242.06      10.086     2.76137E-02
         TOTAL TIME 3.24938E+07 5.41564E+05  9026.1      376.09      1.0297    


end timestep


start timestep kper="14" kstp="5" mode="normal"

 UBDSV1 SAVING     FLOW-JA-FACE ON UNIT   1015 AT TIME STEP      5, STRESS PERIOD     14
 UBDSV06 SAVING              WEL IN MODEL MUMODEL          PACKAGE MUMODEL         CONNECTED TO MODEL MUMODEL          PACKAGE WEL-1            ON UNIT   1015 AT TIME STEP      5, STRESS PERIOD     14
 UBDSV06 SAVING             RCHA IN MODEL MUMODEL          PACKAGE MUMODEL         CONNECTED TO MODEL MUMODEL          PACKAGE RCH-1            ON UNIT   1015 AT TIME STEP      5, STRESS PERIOD     14

 WEL PACKAGE (WEL-1) FLOW RATES   PERIOD     14   STEP        5
 -----------------------------------------------
   NUMBER   CELLID                    RATE      
 -----------------------------------------------
     1      (1,5,5)              -20000.000     
     2      (1,11,5)              0.0000000     
     3      (1,5,5)               0.0000000     
 -----------------------------------------------




 CHD PACKAGE (CHD-FROM-IBOUND) FLOW RATES   PERIOD     14   STEP        5
 -----------------------------------------------
   NUMBER   CELLID                    RATE      
 -----------------------------------------------
     1      (1,1,1)              -2502.5224     
     2      (1,1,2)              -2502.5236     
     3      (1,1,3)              -2502.5239     
     4      (1,1,4)              -2502.5229     
     5      (1,1,5)              -2502.5207     
     6      (1,1,6)              -2502.5204     
     7      (1,1,7)              -2502.5190     
     8      (1,1,8)              -2502.5172     
     9      (1,1,9)              -2502.5156     
     10     (1,21,1)             -2502.5167     
     11     (1,21,2)             -2502.5186     
     12     (1,21,3)             -2502.5206     
     13     (1,21,4)             -2502.5222     
     14     (1,21,5)             -2502.5236     
     15     (1,21,6)             -2502.5250     
     16     (1,21,7)             -2502.5256     
     17     (1,21,8)             -2502.5243     
     18     (1,21,9)             -2502.5218     
 -----------------------------------------------




 HEAD WILL BE SAVED ON UNIT 1016 AT END OF TIME STEP    5, STRESS PERIOD   14


  VOLUME BUDGET FOR ENTIRE MODEL AT END OF TIME STEP    5, STRESS PERIOD  14
  ---------------------------------------------------------------------------------------------------

     CUMULATIVE VOLUME      L**3       RATES FOR THIS TIME STEP      L**3/T          PACKAGE NAME    
     ------------------                 ------------------------                     ----------------

           IN:                                      IN:
           ---                                      ---
              STO-SS =     6570481.5558                STO-SS =       18005.5111     STORAGE                          
              STO-SY =      245861.3989                STO-SY =         674.7496     STORAGE                          
                 WEL =           0.0000                   WEL =           0.0000     WEL-1                            
                RCHA =    35280032.8717                  RCHA =       85500.0000     RCH-1                            
                 CHD =           0.0000                   CHD =           0.0000     CHD-FROM-IBOUND                  

            TOTAL IN =    42096375.8264              TOTAL IN =      104180.2608

          OUT:                                     OUT:
          ----                                     ----
              STO-SS =    23657717.5622                STO-SS =       37758.8895     STORAGE                          
              STO-SY =      869116.6124                STO-SY =        1375.9872     STORAGE                          
                 WEL =      279639.2682                   WEL =       20000.0000     WEL-1                            
                RCHA =           0.0000                  RCHA =           0.0000     RCH-1                            
                 CHD =    17289908.5897                   CHD =       45045.3841     CHD-FROM-IBOUND                  

           TOTAL OUT =    42096382.0325             TOTAL OUT =      104180.2609

            IN - OUT =          -6.2061              IN - OUT =      -1.2118E-04

 PERCENT DISCREPANCY =          -0.00     PERCENT DISCREPANCY =          -0.00




         TIME SUMMARY AT END OF TIME STEP    5 IN STRESS PERIOD   14
                    SECONDS     MINUTES      HOURS       DAYS        YEARS
                    -----------------------------------------------------------
   TIME STEP LENGTH 3.36621E+05  5610.3      93.506      3.8961     1.06669E-02
 STRESS PERIOD TIME 1.20804E+06  20134.      335.57      13.982     3.82805E-02
         TOTAL TIME 3.28304E+07 5.47174E+05  9119.6      379.98      1.0403    


end timestep


start timestep kper="14" kstp="6" mode="normal"

 UBDSV1 SAVING     FLOW-JA-FACE ON UNIT   1015 AT TIME STEP      6, STRESS PERIOD     14
 UBDSV06 SAVING              WEL IN MODEL MUMODEL          PACKAGE MUMODEL         CONNECTED TO MODEL MUMODEL          PACKAGE WEL-1            ON UNIT   1015 AT TIME STEP      6, STRESS PERIOD     14
 UBDSV06 SAVING             RCHA IN MODEL MUMODEL          PACKAGE MUMODEL         CONNECTED TO MODEL MUMODEL          PACKAGE RCH-1            ON UNIT   1015 AT TIME STEP      6, STRESS PERIOD     14

 WEL PACKAGE (WEL-1) FLOW RATES   PERIOD     14   STEP        6
 -----------------------------------------------
   NUMBER   CELLID                    RATE      
 -----------------------------------------------
     1      (1,5,5)              -20000.000     
     2      (1,11,5)              0.0000000     
     3      (1,5,5)               0.0000000     
 -----------------------------------------------




 CHD PACKAGE (CHD-FROM-IBOUND) FLOW RATES   PERIOD     14   STEP        6
 -----------------------------------------------
   NUMBER   CELLID                    RATE      
 -----------------------------------------------
     1      (1,1,1)              -2504.1571     
     2      (1,1,2)              -2504.1583     
     3      (1,1,3)              -2504.1585     
     4      (1,1,4)              -2504.1575     
     5      (1,1,5)              -2504.1537     
     6      (1,1,6)              -2504.1551     
     7      (1,1,7)              -2504.1537     
     8      (1,1,8)              -2504.1519     
     9      (1,1,9)              -2504.1504     
     10     (1,21,1)             -2504.1514     
     11     (1,21,2)             -2504.1533     
     12     (1,21,3)             -2504.1553     
     13     (1,21,4)             -2504.1569     
     14     (1,21,5)             -2504.1583     
     15     (1,21,6)             -2504.1597     
     16     (1,21,7)             -2504.1603     
     17     (1,21,8)             -2504.1590     
     18     (1,21,9)             -2504.1566     
 -----------------------------------------------




 HEAD WILL BE SAVED ON UNIT 1016 AT END OF TIME STEP    6, STRESS PERIOD   14


  VOLUME BUDGET FOR ENTIRE MODEL AT END OF TIME STEP    6, STRESS PERIOD  14
  ---------------------------------------------------------------------------------------------------

     CUMULATIVE VOLUME      L**3       RATES FOR THIS TIME STEP      L**3/T          PACKAGE NAME    
     ------------------                 ------------------------                     ----------------

           IN:                                      IN:
           ---                                      ---
              STO-SS =     6654367.0267                STO-SS =       17942.3233     STORAGE                          
              STO-SY =      249015.9762                STO-SY =         674.7348     STORAGE                          
                 WEL =           0.0000                   WEL =           0.0000     WEL-1                            
                RCHA =    35679769.7201                  RCHA =       85500.0000     RCH-1                            
                 CHD =           0.0000                   CHD =           0.0000     CHD-FROM-IBOUND                  

            TOTAL IN =    42583152.7230              TOTAL IN =      104117.0581

          OUT:                                     OUT:
          ----                                     ----
              STO-SS =    23833834.8006                STO-SS =       37669.8419     STORAGE                          
              STO-SY =      875533.0166                STO-SY =        1372.4093     STORAGE                          
                 WEL =      373144.9638                   WEL =       20000.0000     WEL-1                            
                RCHA =           0.0000                  RCHA =           0.0000     RCH-1                            
                 CHD =    17500646.1491                   CHD =       45074.8071     CHD-FROM-IBOUND                  

           TOTAL OUT =    42583158.9300             TOTAL OUT =      104117.0583

            IN - OUT =          -6.2070              IN - OUT =      -2.0063E-04

 PERCENT DISCREPANCY =          -0.00     PERCENT DISCREPANCY =          -0.00




         TIME SUMMARY AT END OF TIME STEP    6 IN STRESS PERIOD   14
                    SECONDS     MINUTES      HOURS       DAYS        YEARS
                    -----------------------------------------------------------
   TIME STEP LENGTH 4.03945E+05  6732.4      112.21      4.6753     1.28002E-02
 STRESS PERIOD TIME 1.61199E+06  26866.      447.77      18.657     5.10808E-02
         TOTAL TIME 3.32344E+07 5.53906E+05  9231.8      384.66      1.0531    


end timestep


start timestep kper="14" kstp="7" mode="normal"

 UBDSV1 SAVING     FLOW-JA-FACE ON UNIT   1015 AT TIME STEP      7, STRESS PERIOD     14
 UBDSV06 SAVING              WEL IN MODEL MUMODEL          PACKAGE MUMODEL         CONNECTED TO MODEL MUMODEL          PACKAGE WEL-1            ON UNIT   1015 AT TIME STEP      7, STRESS PERIOD     14
 UBDSV06 SAVING             RCHA IN MODEL MUMODEL          PACKAGE MUMODEL         CONNECTED TO MODEL MUMODEL          PACKAGE RCH-1            ON UNIT   1015 AT TIME STEP      7, STRESS PERIOD     14

 WEL PACKAGE (WEL-1) FLOW RATES   PERIOD     14   STEP        7
 -----------------------------------------------
   NUMBER   CELLID                    RATE      
 -----------------------------------------------
     1      (1,5,5)              -20000.000     
     2      (1,11,5)              0.0000000     
     3      (1,5,5)               0.0000000     
 -----------------------------------------------




 CHD PACKAGE (CHD-FROM-IBOUND) FLOW RATES   PERIOD     14   STEP        7
 -----------------------------------------------
   NUMBER   CELLID                    RATE      
 -----------------------------------------------
     1      (1,1,1)              -2506.1007     
     2      (1,1,2)              -2506.1019     
     3      (1,1,3)              -2506.1021     
     4      (1,1,4)              -2506.1009     
     5      (1,1,5)              -2506.0930     
     6      (1,1,6)              -2506.0984     
     7      (1,1,7)              -2506.0973     
     8      (1,1,8)              -2506.0956     
     9      (1,1,9)              -2506.0940     
     10     (1,21,1)             -2506.0951     
     11     (1,21,2)             -2506.0970     
     12     (1,21,3)             -2506.0990     
     13     (1,21,4)             -2506.1005     
     14     (1,21,5)             -2506.1019     
     15     (1,21,6)             -2506.1033     
     16     (1,21,7)             -2506.1038     
     17     (1,21,8)             -2506.1026     
     18     (1,21,9)             -2506.1002     
 -----------------------------------------------




 HEAD WILL BE SAVED ON UNIT 1016 AT END OF TIME STEP    7, STRESS PERIOD   14


  VOLUME BUDGET FOR ENTIRE MODEL AT END OF TIME STEP    7, STRESS PERIOD  14
  ---------------------------------------------------------------------------------------------------

     CUMULATIVE VOLUME      L**3       RATES FOR THIS TIME STEP      L**3/T          PACKAGE NAME    
     ------------------                 ------------------------                     ----------------

           IN:                                      IN:
           ---                                      ---
              STO-SS =     6754509.8260                STO-SS =       17849.6790     STORAGE                          
              STO-SY =      252796.3051                STO-SY =         673.8144     STORAGE                          
                 WEL =           0.0000                   WEL =           0.0000     WEL-1                            
                RCHA =    36159453.9383                  RCHA =       85500.0000     RCH-1                            
                 CHD =           0.0000                   CHD =           0.0000     CHD-FROM-IBOUND                  

            TOTAL IN =    43166760.0693              TOTAL IN =      104023.4934

          OUT:                                     OUT:
          ----                                     ----
              STO-SS =    24044481.8898                STO-SS =       37546.2136     STORAGE                          
              STO-SY =      883205.1190                STO-SY =        1367.4929     STORAGE                          
                 WEL =      485351.7984                   WEL =       20000.0000     WEL-1                            
                RCHA =           0.0000                  RCHA =           0.0000     RCH-1                            
                 CHD =    17753727.4710                   CHD =       45109.7872     CHD-FROM-IBOUND                  

           TOTAL OUT =    43166766.2782             TOTAL OUT =      104023.4938

            IN - OUT =          -6.2088              IN - OUT =      -3.2651E-04

 PERCENT DISCREPANCY =          -0.00     PERCENT DISCREPANCY =          -0.00




         TIME SUMMARY AT END OF TIME STEP    7 IN STRESS PERIOD   14
                    SECONDS     MINUTES      HOURS       DAYS        YEARS
                    -----------------------------------------------------------
   TIME STEP LENGTH 4.84734E+05  8078.9      134.65      5.6103     1.53603E-02
 STRESS PERIOD TIME 2.09672E+06  34945.      582.42      24.268     6.64410E-02
         TOTAL TIME 3.37191E+07 5.61985E+05  9366.4      390.27      1.0685    


end timestep


start timestep kper="14" kstp="8" mode="normal"

 UBDSV1 SAVING     FLOW-JA-FACE ON UNIT   1015 AT TIME STEP      8, STRESS PERIOD     14
 UBDSV06 SAVING              WEL IN MODEL MUMODEL          PACKAGE MUMODEL         CONNECTED TO MODEL MUMODEL          PACKAGE WEL-1            ON UNIT   1015 AT TIME STEP      8, STRESS PERIOD     14
 UBDSV06 SAVING             RCHA IN MODEL MUMODEL          PACKAGE MUMODEL         CONNECTED TO MODEL MUMODEL          PACKAGE RCH-1            ON UNIT   1015 AT TIME STEP      8, STRESS PERIOD     14

 WEL PACKAGE (WEL-1) FLOW RATES   PERIOD     14   STEP        8
 -----------------------------------------------
   NUMBER   CELLID                    RATE      
 -----------------------------------------------
     1      (1,5,5)              -20000.000     
     2      (1,11,5)              0.0000000     
     3      (1,5,5)               0.0000000     
 -----------------------------------------------




 CHD PACKAGE (CHD-FROM-IBOUND) FLOW RATES   PERIOD     14   STEP        8
 -----------------------------------------------
   NUMBER   CELLID                    RATE      
 -----------------------------------------------
     1      (1,1,1)              -2508.4077     
     2      (1,1,2)              -2508.4089     
     3      (1,1,3)              -2508.4090     
     4      (1,1,4)              -2508.4070     
     5      (1,1,5)              -2508.3904     
     6      (1,1,6)              -2508.4046     
     7      (1,1,7)              -2508.4043     
     8      (1,1,8)              -2508.4026     
     9      (1,1,9)              -2508.4011     
     10     (1,21,1)             -2508.4021     
     11     (1,21,2)             -2508.4040     
     12     (1,21,3)             -2508.4060     
     13     (1,21,4)             -2508.4075     
     14     (1,21,5)             -2508.4089     
     15     (1,21,6)             -2508.4102     
     16     (1,21,7)             -2508.4108     
     17     (1,21,8)             -2508.4095     
     18     (1,21,9)             -2508.4072     
 -----------------------------------------------




 HEAD WILL BE SAVED ON UNIT 1016 AT END OF TIME STEP    8, STRESS PERIOD   14


  VOLUME BUDGET FOR ENTIRE MODEL AT END OF TIME STEP    8, STRESS PERIOD  14
  ---------------------------------------------------------------------------------------------------

     CUMULATIVE VOLUME      L**3       RATES FOR THIS TIME STEP      L**3/T          PACKAGE NAME    
     ------------------                 ------------------------                     ----------------

           IN:                                      IN:
           ---                                      ---
              STO-SS =     6873790.0479                STO-SS =       17717.3138     STORAGE                          
              STO-SY =      257317.5609                STO-SY =         671.5657     STORAGE                          
                 WEL =           0.0000                   WEL =           0.0000     WEL-1                            
                RCHA =    36735075.0000                  RCHA =       85500.0000     RCH-1                            
                 CHD =           0.0000                   CHD =           0.0000     CHD-FROM-IBOUND                  

            TOTAL IN =    43866182.6089              TOTAL IN =      103888.8795

          OUT:                                     OUT:
          ----                                     ----
              STO-SS =    24296117.6182                STO-SS =       37376.7678     STORAGE                          
              STO-SY =      892366.6524                STO-SY =        1360.8104     STORAGE                          
                 WEL =      620000.0000                   WEL =       20000.0000     WEL-1                            
                RCHA =           0.0000                  RCHA =           0.0000     RCH-1                            
                 CHD =    18057704.5506                   CHD =       45151.3018     CHD-FROM-IBOUND                  

           TOTAL OUT =    43866188.8212             TOTAL OUT =      103888.8800

            IN - OUT =          -6.2124              IN - OUT =      -5.2682E-04

 PERCENT DISCREPANCY =          -0.00     PERCENT DISCREPANCY =          -0.00




         TIME SUMMARY AT END OF TIME STEP    8 IN STRESS PERIOD   14
                    SECONDS     MINUTES      HOURS       DAYS        YEARS
                    -----------------------------------------------------------
   TIME STEP LENGTH 5.81680E+05  9694.7      161.58      6.7324     1.84323E-02
 STRESS PERIOD TIME 2.67840E+06  44640.      744.00      31.000     8.48734E-02
         TOTAL TIME 3.43008E+07 5.71680E+05  9528.0      397.00      1.0869    


end timestep


start timestep kper="15" kstp="1" mode="normal"


 OUTPUT CONTROL FOR STRESS PERIOD 15 IS REPEATED USING SETTINGS FROM A PREVIOUS STRESS PERIOD.


 STRESS PERIOD 15 IS TRANSIENT


 REUSING WELS FROM LAST STRESS PERIOD

 REUSING CHDS FROM LAST STRESS PERIOD
 UBDSV1 SAVING     FLOW-JA-FACE ON UNIT   1015 AT TIME STEP      1, STRESS PERIOD     15
 UBDSV06 SAVING              WEL IN MODEL MUMODEL          PACKAGE MUMODEL         CONNECTED TO MODEL MUMODEL          PACKAGE WEL-1            ON UNIT   1015 AT TIME STEP      1, STRESS PERIOD     15
 UBDSV06 SAVING             RCHA IN MODEL MUMODEL          PACKAGE MUMODEL         CONNECTED TO MODEL MUMODEL          PACKAGE RCH-1            ON UNIT   1015 AT TIME STEP      1, STRESS PERIOD     15

 WEL PACKAGE (WEL-1) FLOW RATES   PERIOD     15   STEP        1
 -----------------------------------------------
   NUMBER   CELLID                    RATE      
 -----------------------------------------------
     1      (1,5,5)              -20000.000     
     2      (1,11,5)              0.0000000     
     3      (1,5,5)               0.0000000     
 -----------------------------------------------




 CHD PACKAGE (CHD-FROM-IBOUND) FLOW RATES   PERIOD     15   STEP        1
 -----------------------------------------------
   NUMBER   CELLID                    RATE      
 -----------------------------------------------
     1      (1,1,1)              -2512.1978     
     2      (1,1,2)              -2512.1990     
     3      (1,1,3)              -2512.1992     
     4      (1,1,4)              -2512.1969     
     5      (1,1,5)              -2512.1779     
     6      (1,1,6)              -2512.1945     
     7      (1,1,7)              -2512.1945     
     8      (1,1,8)              -2512.1927     
     9      (1,1,9)              -2512.1912     
     10     (1,21,1)             -2512.1923     
     11     (1,21,2)             -2512.1942     
     12     (1,21,3)             -2512.1961     
     13     (1,21,4)             -2512.1976     
     14     (1,21,5)             -2512.1991     
     15     (1,21,6)             -2512.2004     
     16     (1,21,7)             -2512.2009     
     17     (1,21,8)             -2512.1996     
     18     (1,21,9)             -2512.1973     
 -----------------------------------------------




 HEAD WILL BE SAVED ON UNIT 1016 AT END OF TIME STEP    1, STRESS PERIOD   15


  VOLUME BUDGET FOR ENTIRE MODEL AT END OF TIME STEP    1, STRESS PERIOD  15
  ---------------------------------------------------------------------------------------------------

     CUMULATIVE VOLUME      L**3       RATES FOR THIS TIME STEP      L**3/T          PACKAGE NAME    
     ------------------                 ------------------------                     ----------------

           IN:                                      IN:
           ---                                      ---
              STO-SS =     6897487.3487                STO-SS =       13963.7063     STORAGE                          
              STO-SY =      258222.0424                STO-SY =         532.9685     STORAGE                          
                 WEL =           0.0000                   WEL =           0.0000     WEL-1                            
                RCHA =    37170371.8717                  RCHA =      256500.0000     RCH-1                            
                 CHD =           0.0000                   CHD =           0.0000     CHD-FROM-IBOUND                  

            TOTAL IN =    44326081.2629              TOTAL IN =      270996.6747

          OUT:                                     OUT:
          ----                                     ----
              STO-SS =    24632972.0803                STO-SS =      198492.5120     STORAGE                          
              STO-SY =      904729.1548                STO-SY =        7284.6420     STORAGE                          
                 WEL =      653941.2765                   WEL =       20000.0000     WEL-1                            
                RCHA =           0.0000                  RCHA =           0.0000     RCH-1                            
                 CHD =    18134444.9645                   CHD =       45219.5213     CHD-FROM-IBOUND                  

           TOTAL OUT =    44326087.4761             TOTAL OUT =      270996.6752

            IN - OUT =          -6.2132              IN - OUT =      -4.9114E-04

 PERCENT DISCREPANCY =          -0.00     PERCENT DISCREPANCY =          -0.00




         TIME SUMMARY AT END OF TIME STEP    1 IN STRESS PERIOD   15
                    SECONDS     MINUTES      HOURS       DAYS        YEARS
                    -----------------------------------------------------------
   TIME STEP LENGTH 1.46626E+05  2443.8      40.730      1.6971     4.64631E-03
 STRESS PERIOD TIME 1.46626E+05  2443.8      40.730      1.6971     4.64631E-03
         TOTAL TIME 3.44474E+07 5.74124E+05  9568.7      398.70      1.0916    


end timestep


start timestep kper="15" kstp="2" mode="normal"

 UBDSV1 SAVING     FLOW-JA-FACE ON UNIT   1015 AT TIME STEP      2, STRESS PERIOD     15
 UBDSV06 SAVING              WEL IN MODEL MUMODEL          PACKAGE MUMODEL         CONNECTED TO MODEL MUMODEL          PACKAGE WEL-1            ON UNIT   1015 AT TIME STEP      2, STRESS PERIOD     15
 UBDSV06 SAVING             RCHA IN MODEL MUMODEL          PACKAGE MUMODEL         CONNECTED TO MODEL MUMODEL          PACKAGE RCH-1            ON UNIT   1015 AT TIME STEP      2, STRESS PERIOD     15

 WEL PACKAGE (WEL-1) FLOW RATES   PERIOD     15   STEP        2
 -----------------------------------------------
   NUMBER   CELLID                    RATE      
 -----------------------------------------------
     1      (1,5,5)              -20000.000     
     2      (1,11,5)              0.0000000     
     3      (1,5,5)               0.0000000     
 -----------------------------------------------




 CHD PACKAGE (CHD-FROM-IBOUND) FLOW RATES   PERIOD     15   STEP        2
 -----------------------------------------------
   NUMBER   CELLID                    RATE      
 -----------------------------------------------
     1      (1,1,1)              -2516.7289     
     2      (1,1,2)              -2516.7301     
     3      (1,1,3)              -2516.7302     
     4      (1,1,4)              -2516.7277     
     5      (1,1,5)              -2516.7052     
     6      (1,1,6)              -2516.7253     
     7      (1,1,7)              -2516.7255     
     8      (1,1,8)              -2516.7238     
     9      (1,1,9)              -2516.7224     
     10     (1,21,1)             -2516.7234     
     11     (1,21,2)             -2516.7253     
     12     (1,21,3)             -2516.7272     
     13     (1,21,4)             -2516.7287     
     14     (1,21,5)             -2516.7302     
     15     (1,21,6)             -2516.7315     
     16     (1,21,7)             -2516.7320     
     17     (1,21,8)             -2516.7307     
     18     (1,21,9)             -2516.7284     
 -----------------------------------------------




 HEAD WILL BE SAVED ON UNIT 1016 AT END OF TIME STEP    2, STRESS PERIOD   15


  VOLUME BUDGET FOR ENTIRE MODEL AT END OF TIME STEP    2, STRESS PERIOD  15
  ---------------------------------------------------------------------------------------------------

     CUMULATIVE VOLUME      L**3       RATES FOR THIS TIME STEP      L**3/T          PACKAGE NAME    
     ------------------                 ------------------------                     ----------------

           IN:                                      IN:
           ---                                      ---
              STO-SS =     6925476.5126                STO-SS =       13743.9163     STORAGE                          
              STO-SY =      259291.9489                STO-SY =         525.3713     STORAGE                          
                 WEL =           0.0000                   WEL =           0.0000     WEL-1                            
                RCHA =    37692728.1178                  RCHA =      256500.0000     RCH-1                            
                 CHD =           0.0000                   CHD =           0.0000     CHD-FROM-IBOUND                  

            TOTAL IN =    44877496.5793              TOTAL IN =      270769.2876

          OUT:                                     OUT:
          ----                                     ----
              STO-SS =    25036593.7080                STO-SS =      198196.0554     STORAGE                          
              STO-SY =      919538.7314                STO-SY =        7272.1565     STORAGE                          
                 WEL =      694670.8084                   WEL =       20000.0000     WEL-1                            
                RCHA =           0.0000                  RCHA =           0.0000     RCH-1                            
                 CHD =    18226699.5464                   CHD =       45301.0765     CHD-FROM-IBOUND                  

           TOTAL OUT =    44877502.7942             TOTAL OUT =      270769.2885

            IN - OUT =          -6.2149              IN - OUT =      -8.3829E-04

 PERCENT DISCREPANCY =          -0.00     PERCENT DISCREPANCY =          -0.00




         TIME SUMMARY AT END OF TIME STEP    2 IN STRESS PERIOD   15
                    SECONDS     MINUTES      HOURS       DAYS        YEARS
                    -----------------------------------------------------------
   TIME STEP LENGTH 1.75952E+05  2932.5      48.875      2.0365     5.57557E-03
 STRESS PERIOD TIME 3.22578E+05  5376.3      89.605      3.7335     1.02219E-02
         TOTAL TIME 3.46234E+07 5.77056E+05  9617.6      400.73      1.0971    


end timestep


start timestep kper="15" kstp="3" mode="normal"

 UBDSV1 SAVING     FLOW-JA-FACE ON UNIT   1015 AT TIME STEP      3, STRESS PERIOD     15
 UBDSV06 SAVING              WEL IN MODEL MUMODEL          PACKAGE MUMODEL         CONNECTED TO MODEL MUMODEL          PACKAGE WEL-1            ON UNIT   1015 AT TIME STEP      3, STRESS PERIOD     15
 UBDSV06 SAVING             RCHA IN MODEL MUMODEL          PACKAGE MUMODEL         CONNECTED TO MODEL MUMODEL          PACKAGE RCH-1            ON UNIT   1015 AT TIME STEP      3, STRESS PERIOD     15

 WEL PACKAGE (WEL-1) FLOW RATES   PERIOD     15   STEP        3
 -----------------------------------------------
   NUMBER   CELLID                    RATE      
 -----------------------------------------------
     1      (1,5,5)              -20000.000     
     2      (1,11,5)              0.0000000     
     3      (1,5,5)               0.0000000     
 -----------------------------------------------




 CHD PACKAGE (CHD-FROM-IBOUND) FLOW RATES   PERIOD     15   STEP        3
 -----------------------------------------------
   NUMBER   CELLID                    RATE      
 -----------------------------------------------
     1      (1,1,1)              -2522.1419     
     2      (1,1,2)              -2522.1431     
     3      (1,1,3)              -2522.1432     
     4      (1,1,4)              -2522.1402     
     5      (1,1,5)              -2522.1129     
     6      (1,1,6)              -2522.1378     
     7      (1,1,7)              -2522.1385     
     8      (1,1,8)              -2522.1369     
     9      (1,1,9)              -2522.1354     
     10     (1,21,1)             -2522.1365     
     11     (1,21,2)             -2522.1383     
     12     (1,21,3)             -2522.1402     
     13     (1,21,4)             -2522.1417     
     14     (1,21,5)             -2522.1432     
     15     (1,21,6)             -2522.1445     
     16     (1,21,7)             -2522.1450     
     17     (1,21,8)             -2522.1437     
     18     (1,21,9)             -2522.1414     
 -----------------------------------------------




 HEAD WILL BE SAVED ON UNIT 1016 AT END OF TIME STEP    3, STRESS PERIOD   15


  VOLUME BUDGET FOR ENTIRE MODEL AT END OF TIME STEP    3, STRESS PERIOD  15
  ---------------------------------------------------------------------------------------------------

     CUMULATIVE VOLUME      L**3       RATES FOR THIS TIME STEP      L**3/T          PACKAGE NAME    
     ------------------                 ------------------------                     ----------------

           IN:                                      IN:
           ---                                      ---
              STO-SS =     6958433.3170                STO-SS =       13486.0394     STORAGE                          
              STO-SY =      260553.9970                STO-SY =         516.4345     STORAGE                          
                 WEL =           0.0000                   WEL =           0.0000     WEL-1                            
                RCHA =    38319555.6131                  RCHA =      256500.0000     RCH-1                            
                 CHD =           0.0000                   CHD =           0.0000     CHD-FROM-IBOUND                  

            TOTAL IN =    45538542.9271              TOTAL IN =      270502.4740

          OUT:                                     OUT:
          ----                                     ----
              STO-SS =    25520085.5661                STO-SS =      197846.5567     STORAGE                          
              STO-SY =      937274.1968                STO-SY =        7257.4144     STORAGE                          
                 WEL =      743546.2466                   WEL =       20000.0000     WEL-1                            
                RCHA =           0.0000                  RCHA =           0.0000     RCH-1                            
                 CHD =    18337643.1359                   CHD =       45398.5043     CHD-FROM-IBOUND                  

           TOTAL OUT =    45538549.1455             TOTAL OUT =      270502.4754

            IN - OUT =          -6.2184              IN - OUT =      -1.4163E-03

 PERCENT DISCREPANCY =          -0.00     PERCENT DISCREPANCY =          -0.00




         TIME SUMMARY AT END OF TIME STEP    3 IN STRESS PERIOD   15
                    SECONDS     MINUTES      HOURS       DAYS        YEARS
                    -----------------------------------------------------------
   TIME STEP LENGTH 2.11142E+05  3519.0      58.651      2.4438     6.69068E-03
 STRESS PERIOD TIME 5.33720E+05  8895.3      148.26      6.1773     1.69126E-02
         TOTAL TIME 3.48345E+07 5.80575E+05  9676.3      403.18      1.1038    


end timestep


start timestep kper="15" kstp="4" mode="normal"

 UBDSV1 SAVING     FLOW-JA-FACE ON UNIT   1015 AT TIME STEP      4, STRESS PERIOD     15
 UBDSV06 SAVING              WEL IN MODEL MUMODEL          PACKAGE MUMODEL         CONNECTED TO MODEL MUMODEL          PACKAGE WEL-1            ON UNIT   1015 AT TIME STEP      4, STRESS PERIOD     15
 UBDSV06 SAVING             RCHA IN MODEL MUMODEL          PACKAGE MUMODEL         CONNECTED TO MODEL MUMODEL          PACKAGE RCH-1            ON UNIT   1015 AT TIME STEP      4, STRESS PERIOD     15

 WEL PACKAGE (WEL-1) FLOW RATES   PERIOD     15   STEP        4
 -----------------------------------------------
   NUMBER   CELLID                    RATE      
 -----------------------------------------------
     1      (1,5,5)              -20000.000     
     2      (1,11,5)              0.0000000     
     3      (1,5,5)               0.0000000     
 -----------------------------------------------




 CHD PACKAGE (CHD-FROM-IBOUND) FLOW RATES   PERIOD     15   STEP        4
 -----------------------------------------------
   NUMBER   CELLID                    RATE      
 -----------------------------------------------
     1      (1,1,1)              -2528.6029     
     2      (1,1,2)              -2528.6040     
     3      (1,1,3)              -2528.6041     
     4      (1,1,4)              -2528.6005     
     5      (1,1,5)              -2528.5662     
     6      (1,1,6)              -2528.5980     
     7      (1,1,7)              -2528.5995     
     8      (1,1,8)              -2528.5979     
     9      (1,1,9)              -2528.5964     
     10     (1,21,1)             -2528.5975     
     11     (1,21,2)             -2528.5993     
     12     (1,21,3)             -2528.6012     
     13     (1,21,4)             -2528.6027     
     14     (1,21,5)             -2528.6041     
     15     (1,21,6)             -2528.6054     
     16     (1,21,7)             -2528.6059     
     17     (1,21,8)             -2528.6047     
     18     (1,21,9)             -2528.6024     
 -----------------------------------------------




 HEAD WILL BE SAVED ON UNIT 1016 AT END OF TIME STEP    4, STRESS PERIOD   15


  VOLUME BUDGET FOR ENTIRE MODEL AT END OF TIME STEP    4, STRESS PERIOD  15
  ---------------------------------------------------------------------------------------------------

     CUMULATIVE VOLUME      L**3       RATES FOR THIS TIME STEP      L**3/T          PACKAGE NAME    
     ------------------                 ------------------------                     ----------------

           IN:                                      IN:
           ---                                      ---
              STO-SS =     6997098.0562                STO-SS =       13184.7886     STORAGE                          
              STO-SY =      262037.7451                STO-SY =         505.9624     STORAGE                          
                 WEL =           0.0000                   WEL =           0.0000     WEL-1                            
                RCHA =    39071748.6075                  RCHA =      256500.0000     RCH-1                            
                 CHD =           0.0000                   CHD =           0.0000     CHD-FROM-IBOUND                  

            TOTAL IN =    46330884.4088              TOTAL IN =      270190.7510

          OUT:                                     OUT:
          ----                                     ----
              STO-SS =    26099071.5354                STO-SS =      197435.9004     STORAGE                          
              STO-SY =      958505.8634                STO-SY =        7240.0601     STORAGE                          
                 WEL =      802196.7725                   WEL =       20000.0000     WEL-1                            
                RCHA =           0.0000                  RCHA =           0.0000     RCH-1                            
                 CHD =    18471116.4629                   CHD =       45514.7929     CHD-FROM-IBOUND                  

           TOTAL OUT =    46330890.6342             TOTAL OUT =      270190.7534

            IN - OUT =          -6.2254              IN - OUT =      -2.3795E-03

 PERCENT DISCREPANCY =          -0.00     PERCENT DISCREPANCY =          -0.00




         TIME SUMMARY AT END OF TIME STEP    4 IN STRESS PERIOD   15
                    SECONDS     MINUTES      HOURS       DAYS        YEARS
                    -----------------------------------------------------------
   TIME STEP LENGTH 2.53370E+05  4222.8      70.381      2.9325     8.02882E-03
 STRESS PERIOD TIME 7.87090E+05  13118.      218.64      9.1098     2.49414E-02
         TOTAL TIME 3.50879E+07 5.84798E+05  9746.6      406.11      1.1119    


end timestep


start timestep kper="15" kstp="5" mode="normal"

 UBDSV1 SAVING     FLOW-JA-FACE ON UNIT   1015 AT TIME STEP      5, STRESS PERIOD     15
 UBDSV06 SAVING              WEL IN MODEL MUMODEL          PACKAGE MUMODEL         CONNECTED TO MODEL MUMODEL          PACKAGE WEL-1            ON UNIT   1015 AT TIME STEP      5, STRESS PERIOD     15
 UBDSV06 SAVING             RCHA IN MODEL MUMODEL          PACKAGE MUMODEL         CONNECTED TO MODEL MUMODEL          PACKAGE RCH-1            ON UNIT   1015 AT TIME STEP      5, STRESS PERIOD     15

 WEL PACKAGE (WEL-1) FLOW RATES   PERIOD     15   STEP        5
 -----------------------------------------------
   NUMBER   CELLID                    RATE      
 -----------------------------------------------
     1      (1,5,5)              -20000.000     
     2      (1,11,5)              0.0000000     
     3      (1,5,5)               0.0000000     
 -----------------------------------------------




 CHD PACKAGE (CHD-FROM-IBOUND) FLOW RATES   PERIOD     15   STEP        5
 -----------------------------------------------
   NUMBER   CELLID                    RATE      
 -----------------------------------------------
     1      (1,1,1)              -2536.3069     
     2      (1,1,2)              -2536.3080     
     3      (1,1,3)              -2536.3081     
     4      (1,1,4)              -2536.3033     
     5      (1,1,5)              -2536.2590     
     6      (1,1,6)              -2536.3009     
     7      (1,1,7)              -2536.3034     
     8      (1,1,8)              -2536.3019     
     9      (1,1,9)              -2536.3004     
     10     (1,21,1)             -2536.3015     
     11     (1,21,2)             -2536.3033     
     12     (1,21,3)             -2536.3052     
     13     (1,21,4)             -2536.3067     
     14     (1,21,5)             -2536.3081     
     15     (1,21,6)             -2536.3094     
     16     (1,21,7)             -2536.3099     
     17     (1,21,8)             -2536.3087     
     18     (1,21,9)             -2536.3064     
 -----------------------------------------------




 HEAD WILL BE SAVED ON UNIT 1016 AT END OF TIME STEP    5, STRESS PERIOD   15


  VOLUME BUDGET FOR ENTIRE MODEL AT END OF TIME STEP    5, STRESS PERIOD  15
  ---------------------------------------------------------------------------------------------------

     CUMULATIVE VOLUME      L**3       RATES FOR THIS TIME STEP      L**3/T          PACKAGE NAME    
     ------------------                 ------------------------                     ----------------

           IN:                                      IN:
           ---                                      ---
              STO-SS =     7042263.6897                STO-SS =       12834.6770     STORAGE                          
              STO-SY =      263775.2588                STO-SY =         493.7477     STORAGE                          
                 WEL =           0.0000                   WEL =           0.0000     WEL-1                            
                RCHA =    39974380.2007                  RCHA =      256500.0000     RCH-1                            
                 CHD =           0.0000                   CHD =           0.0000     CHD-FROM-IBOUND                  

            TOTAL IN =    47280419.1492              TOTAL IN =      269828.4247

          OUT:                                     OUT:
          ----                                     ----
              STO-SS =    26792163.3476                STO-SS =      196955.2708     STORAGE                          
              STO-SY =      983912.2253                STO-SY =        7219.7028     STORAGE                          
                 WEL =      872577.4036                   WEL =       20000.0000     WEL-1                            
                RCHA =           0.0000                  RCHA =           0.0000     RCH-1                            
                 CHD =    18631772.3983                   CHD =       45653.4512     CHD-FROM-IBOUND                  

           TOTAL OUT =    47280425.3748             TOTAL OUT =      269828.4248

            IN - OUT =          -6.2256              IN - OUT =      -5.7796E-05

 PERCENT DISCREPANCY =          -0.00     PERCENT DISCREPANCY =          -0.00




         TIME SUMMARY AT END OF TIME STEP    5 IN STRESS PERIOD   15
                    SECONDS     MINUTES      HOURS       DAYS        YEARS
                    -----------------------------------------------------------
   TIME STEP LENGTH 3.04044E+05  5067.4      84.457      3.5190     9.63458E-03
 STRESS PERIOD TIME 1.09113E+06  18186.      303.09      12.629     3.45760E-02
         TOTAL TIME 3.53919E+07 5.89866E+05  9831.1      409.63      1.1215    


end timestep


start timestep kper="15" kstp="6" mode="normal"

 UBDSV1 SAVING     FLOW-JA-FACE ON UNIT   1015 AT TIME STEP      6, STRESS PERIOD     15
 UBDSV06 SAVING              WEL IN MODEL MUMODEL          PACKAGE MUMODEL         CONNECTED TO MODEL MUMODEL          PACKAGE WEL-1            ON UNIT   1015 AT TIME STEP      6, STRESS PERIOD     15
 UBDSV06 SAVING             RCHA IN MODEL MUMODEL          PACKAGE MUMODEL         CONNECTED TO MODEL MUMODEL          PACKAGE RCH-1            ON UNIT   1015 AT TIME STEP      6, STRESS PERIOD     15

 WEL PACKAGE (WEL-1) FLOW RATES   PERIOD     15   STEP        6
 -----------------------------------------------
   NUMBER   CELLID                    RATE      
 -----------------------------------------------
     1      (1,5,5)              -20000.000     
     2      (1,11,5)              0.0000000     
     3      (1,5,5)               0.0000000     
 -----------------------------------------------




 CHD PACKAGE (CHD-FROM-IBOUND) FLOW RATES   PERIOD     15   STEP        6
 -----------------------------------------------
   NUMBER   CELLID                    RATE      
 -----------------------------------------------
     1      (1,1,1)              -2545.4820     
     2      (1,1,2)              -2545.4831     
     3      (1,1,3)              -2545.4830     
     4      (1,1,4)              -2545.4765     
     5      (1,1,5)              -2545.4171     
     6      (1,1,6)              -2545.4741     
     7      (1,1,7)              -2545.4784     
     8      (1,1,8)              -2545.4770     
     9      (1,1,9)              -2545.4755     
     10     (1,21,1)             -2545.4766     
     11     (1,21,2)             -2545.4784     
     12     (1,21,3)             -2545.4803     
     13     (1,21,4)             -2545.4818     
     14     (1,21,5)             -2545.4832     
     15     (1,21,6)             -2545.4845     
     16     (1,21,7)             -2545.4850     
     17     (1,21,8)             -2545.4837     
     18     (1,21,9)             -2545.4815     
 -----------------------------------------------




 HEAD WILL BE SAVED ON UNIT 1016 AT END OF TIME STEP    6, STRESS PERIOD   15


  VOLUME BUDGET FOR ENTIRE MODEL AT END OF TIME STEP    6, STRESS PERIOD  15
  ---------------------------------------------------------------------------------------------------

     CUMULATIVE VOLUME      L**3       RATES FOR THIS TIME STEP      L**3/T          PACKAGE NAME    
     ------------------                 ------------------------                     ----------------

           IN:                                      IN:
           ---                                      ---
              STO-SS =     7095046.1161                STO-SS =       12499.2785     STORAGE                          
              STO-SY =      265811.3912                STO-SY =         482.1716     STORAGE                          
                 WEL =           0.0000                   WEL =           0.0000     WEL-1                            
                RCHA =    41057538.1126                  RCHA =      256500.0000     RCH-1                            
                 CHD =           0.0000                   CHD =           0.0000     CHD-FROM-IBOUND                  

            TOTAL IN =    48418395.6199              TOTAL IN =      269481.4501

          OUT:                                     OUT:
          ----                                     ----
              STO-SS =    27621800.4587                STO-SS =      196464.3536     STORAGE                          
              STO-SY =     1014310.3869                STO-SY =        7198.5150     STORAGE                          
                 WEL =      957034.1608                   WEL =       20000.0000     WEL-1                            
                RCHA =           0.0000                  RCHA =           0.0000     RCH-1                            
                 CHD =    18825256.8395                   CHD =       45818.5816     CHD-FROM-IBOUND                  

           TOTAL OUT =    48418401.8459             TOTAL OUT =      269481.4502

            IN - OUT =          -6.2260              IN - OUT =      -9.2725E-05

 PERCENT DISCREPANCY =          -0.00     PERCENT DISCREPANCY =          -0.00




         TIME SUMMARY AT END OF TIME STEP    6 IN STRESS PERIOD   15
                    SECONDS     MINUTES      HOURS       DAYS        YEARS
                    -----------------------------------------------------------
   TIME STEP LENGTH 3.64853E+05  6080.9      101.35      4.2228     1.15615E-02
 STRESS PERIOD TIME 1.45599E+06  24266.      404.44      16.852     4.61375E-02
         TOTAL TIME 3.57568E+07 5.95946E+05  9932.4      413.85      1.1331    


end timestep


start timestep kper="15" kstp="7" mode="normal"

 UBDSV1 SAVING     FLOW-JA-FACE ON UNIT   1015 AT TIME STEP      7, STRESS PERIOD     15
 UBDSV06 SAVING              WEL IN MODEL MUMODEL          PACKAGE MUMODEL         CONNECTED TO MODEL MUMODEL          PACKAGE WEL-1            ON UNIT   1015 AT TIME STEP      7, STRESS PERIOD     15
 UBDSV06 SAVING             RCHA IN MODEL MUMODEL          PACKAGE MUMODEL         CONNECTED TO MODEL MUMODEL          PACKAGE RCH-1            ON UNIT   1015 AT TIME STEP      7, STRESS PERIOD     15

 WEL PACKAGE (WEL-1) FLOW RATES   PERIOD     15   STEP        7
 -----------------------------------------------
   NUMBER   CELLID                    RATE      
 -----------------------------------------------
     1      (1,5,5)              -20000.000     
     2      (1,11,5)              0.0000000     
     3      (1,5,5)               0.0000000     
 -----------------------------------------------




 CHD PACKAGE (CHD-FROM-IBOUND) FLOW RATES   PERIOD     15   STEP        7
 -----------------------------------------------
   NUMBER   CELLID                    RATE      
 -----------------------------------------------
     1      (1,1,1)              -2556.3935     
     2      (1,1,2)              -2556.3946     
     3      (1,1,3)              -2556.3943     
     4      (1,1,4)              -2556.3848     
     5      (1,1,5)              -2556.3027     
     6      (1,1,6)              -2556.3825     
     7      (1,1,7)              -2556.3897     
     8      (1,1,8)              -2556.3885     
     9      (1,1,9)              -2556.3871     
     10     (1,21,1)             -2556.3882     
     11     (1,21,2)             -2556.3900     
     12     (1,21,3)             -2556.3919     
     13     (1,21,4)             -2556.3934     
     14     (1,21,5)             -2556.3947     
     15     (1,21,6)             -2556.3960     
     16     (1,21,7)             -2556.3965     
     17     (1,21,8)             -2556.3952     
     18     (1,21,9)             -2556.3930     
 -----------------------------------------------




 HEAD WILL BE SAVED ON UNIT 1016 AT END OF TIME STEP    7, STRESS PERIOD   15


  VOLUME BUDGET FOR ENTIRE MODEL AT END OF TIME STEP    7, STRESS PERIOD  15
  ---------------------------------------------------------------------------------------------------

     CUMULATIVE VOLUME      L**3       RATES FOR THIS TIME STEP      L**3/T          PACKAGE NAME    
     ------------------                 ------------------------                     ----------------

           IN:                                      IN:
           ---                                      ---
              STO-SS =     7157680.4326                STO-SS =       12360.2339     STORAGE                          
              STO-SY =      268233.1693                STO-SY =         477.9128     STORAGE                          
                 WEL =           0.0000                   WEL =           0.0000     WEL-1                            
                RCHA =    42357327.6069                  RCHA =      256500.0000     RCH-1                            
                 CHD =           0.0000                   CHD =           0.0000     CHD-FROM-IBOUND                  

            TOTAL IN =    49783241.2088              TOTAL IN =      269338.1468

          OUT:                                     OUT:
          ----                                     ----
              STO-SS =    28615722.6370                STO-SS =      196140.2518     STORAGE                          
              STO-SY =     1050709.2481                STO-SY =        7182.9384     STORAGE                          
                 WEL =     1058382.2695                   WEL =       20000.0000     WEL-1                            
                RCHA =           0.0000                  RCHA =           0.0000     RCH-1                            
                 CHD =    19058433.2810                   CHD =       46014.9567     CHD-FROM-IBOUND                  

           TOTAL OUT =    49783247.4356             TOTAL OUT =      269338.1469

            IN - OUT =          -6.2267              IN - OUT =      -1.4996E-04

 PERCENT DISCREPANCY =          -0.00     PERCENT DISCREPANCY =          -0.00




         TIME SUMMARY AT END OF TIME STEP    7 IN STRESS PERIOD   15
                    SECONDS     MINUTES      HOURS       DAYS        YEARS
                    -----------------------------------------------------------
   TIME STEP LENGTH 4.37824E+05  7297.1      121.62      5.0674     1.38738E-02
 STRESS PERIOD TIME 1.89381E+06  31564.      526.06      21.919     6.00113E-02
         TOTAL TIME 3.61946E+07 6.03244E+05  10054.      418.92      1.1469    


end timestep


start timestep kper="15" kstp="8" mode="normal"

 UBDSV1 SAVING     FLOW-JA-FACE ON UNIT   1015 AT TIME STEP      8, STRESS PERIOD     15
 UBDSV06 SAVING              WEL IN MODEL MUMODEL          PACKAGE MUMODEL         CONNECTED TO MODEL MUMODEL          PACKAGE WEL-1            ON UNIT   1015 AT TIME STEP      8, STRESS PERIOD     15
 UBDSV06 SAVING             RCHA IN MODEL MUMODEL          PACKAGE MUMODEL         CONNECTED TO MODEL MUMODEL          PACKAGE RCH-1            ON UNIT   1015 AT TIME STEP      8, STRESS PERIOD     15

 WEL PACKAGE (WEL-1) FLOW RATES   PERIOD     15   STEP        8
 -----------------------------------------------
   NUMBER   CELLID                    RATE      
 -----------------------------------------------
     1      (1,5,5)              -20000.000     
     2      (1,11,5)              0.0000000     
     3      (1,5,5)               0.0000000     
 -----------------------------------------------




 CHD PACKAGE (CHD-FROM-IBOUND) FLOW RATES   PERIOD     15   STEP        8
 -----------------------------------------------
   NUMBER   CELLID                    RATE      
 -----------------------------------------------
     1      (1,1,1)              -2569.3486     
     2      (1,1,2)              -2569.3496     
     3      (1,1,3)              -2569.3490     
     4      (1,1,4)              -2569.3345     
     5      (1,1,5)              -2569.2169     
     6      (1,1,6)              -2569.3321     
     7      (1,1,7)              -2569.3445     
     8      (1,1,8)              -2569.3436     
     9      (1,1,9)              -2569.3422     
     10     (1,21,1)             -2569.3434     
     11     (1,21,2)             -2569.3451     
     12     (1,21,3)             -2569.3470     
     13     (1,21,4)             -2569.3485     
     14     (1,21,5)             -2569.3498     
     15     (1,21,6)             -2569.3511     
     16     (1,21,7)             -2569.3515     
     17     (1,21,8)             -2569.3503     
     18     (1,21,9)             -2569.3481     
 -----------------------------------------------




 HEAD WILL BE SAVED ON UNIT 1016 AT END OF TIME STEP    8, STRESS PERIOD   15


  VOLUME BUDGET FOR ENTIRE MODEL AT END OF TIME STEP    8, STRESS PERIOD  15
  ---------------------------------------------------------------------------------------------------

     CUMULATIVE VOLUME      L**3       RATES FOR THIS TIME STEP      L**3/T          PACKAGE NAME    
     ------------------                 ------------------------                     ----------------

           IN:                                      IN:
           ---                                      ---
              STO-SS =     7231770.8666                STO-SS =       12184.1501     STORAGE                          
              STO-SY =      271105.1448                STO-SY =         472.2955     STORAGE                          
                 WEL =           0.0000                   WEL =           0.0000     WEL-1                            
                RCHA =    43917075.0000                  RCHA =      256500.0000     RCH-1                            
                 CHD =           0.0000                   CHD =           0.0000     CHD-FROM-IBOUND                  

            TOTAL IN =    51419951.0114              TOTAL IN =      269156.4456

          OUT:                                     OUT:
          ----                                     ----
              STO-SS =    29806021.6296                STO-SS =      195744.3192     STORAGE                          
              STO-SY =     1094272.9064                STO-SY =        7164.0308     STORAGE                          
                 WEL =     1180000.0000                   WEL =       20000.0000     WEL-1                            
                RCHA =           0.0000                  RCHA =           0.0000     RCH-1                            
                 CHD =    19339662.7036                   CHD =       46248.0958     CHD-FROM-IBOUND                  

           TOTAL OUT =    51419957.2396             TOTAL OUT =      269156.4458

            IN - OUT =          -6.2282              IN - OUT =      -2.4164E-04

 PERCENT DISCREPANCY =          -0.00     PERCENT DISCREPANCY =          -0.00




         TIME SUMMARY AT END OF TIME STEP    8 IN STRESS PERIOD   15
                    SECONDS     MINUTES      HOURS       DAYS        YEARS
                    -----------------------------------------------------------
   TIME STEP LENGTH 5.25389E+05  8756.5      145.94      6.0809     1.66486E-02
 STRESS PERIOD TIME 2.41920E+06  40320.      672.00      28.000     7.66598E-02
         TOTAL TIME 3.67200E+07 6.12000E+05  10200.      425.00      1.1636    


end timestep


start timestep kper="16" kstp="1" mode="normal"


 OUTPUT CONTROL FOR STRESS PERIOD 16 IS REPEATED USING SETTINGS FROM A PREVIOUS STRESS PERIOD.


 STRESS PERIOD 16 IS TRANSIENT


 REUSING WELS FROM LAST STRESS PERIOD

 REUSING CHDS FROM LAST STRESS PERIOD
 UBDSV1 SAVING     FLOW-JA-FACE ON UNIT   1015 AT TIME STEP      1, STRESS PERIOD     16
 UBDSV06 SAVING              WEL IN MODEL MUMODEL          PACKAGE MUMODEL         CONNECTED TO MODEL MUMODEL          PACKAGE WEL-1            ON UNIT   1015 AT TIME STEP      1, STRESS PERIOD     16
 UBDSV06 SAVING             RCHA IN MODEL MUMODEL          PACKAGE MUMODEL         CONNECTED TO MODEL MUMODEL          PACKAGE RCH-1            ON UNIT   1015 AT TIME STEP      1, STRESS PERIOD     16

 WEL PACKAGE (WEL-1) FLOW RATES   PERIOD     16   STEP        1
 -----------------------------------------------
   NUMBER   CELLID                    RATE      
 -----------------------------------------------
     1      (1,5,5)              -20000.000     
     2      (1,11,5)              0.0000000     
     3      (1,5,5)               0.0000000     
 -----------------------------------------------




 CHD PACKAGE (CHD-FROM-IBOUND) FLOW RATES   PERIOD     16   STEP        1
 -----------------------------------------------
   NUMBER   CELLID                    RATE      
 -----------------------------------------------
     1      (1,1,1)              -2575.1143     
     2      (1,1,2)              -2575.1153     
     3      (1,1,3)              -2575.1146     
     4      (1,1,4)              -2575.0984     
     5      (1,1,5)              -2574.9691     
     6      (1,1,6)              -2575.0960     
     7      (1,1,7)              -2575.1100     
     8      (1,1,8)              -2575.1093     
     9      (1,1,9)              -2575.1080     
     10     (1,21,1)             -2575.1091     
     11     (1,21,2)             -2575.1108     
     12     (1,21,3)             -2575.1127     
     13     (1,21,4)             -2575.1142     
     14     (1,21,5)             -2575.1156     
     15     (1,21,6)             -2575.1168     
     16     (1,21,7)             -2575.1172     
     17     (1,21,8)             -2575.1160     
     18     (1,21,9)             -2575.1139     
 -----------------------------------------------




 HEAD WILL BE SAVED ON UNIT 1016 AT END OF TIME STEP    1, STRESS PERIOD   16


  VOLUME BUDGET FOR ENTIRE MODEL AT END OF TIME STEP    1, STRESS PERIOD  16
  ---------------------------------------------------------------------------------------------------

     CUMULATIVE VOLUME      L**3       RATES FOR THIS TIME STEP      L**3/T          PACKAGE NAME    
     ------------------                 ------------------------                     ----------------

           IN:                                      IN:
           ---                                      ---
              STO-SS =     7252056.9801                STO-SS =       10796.8486     STORAGE                          
              STO-SY =      271895.6934                STO-SY =         420.7525     STORAGE                          
                 WEL =           0.0000                   WEL =           0.0000     WEL-1                            
                RCHA =    44559656.0964                  RCHA =      342000.0000     RCH-1                            
                 CHD =           0.0000                   CHD =           0.0000     CHD-FROM-IBOUND                  

            TOTAL IN =    52083608.7699              TOTAL IN =      353217.6012

          OUT:                                     OUT:
          ----                                     ----
              STO-SS =    30325970.7013                STO-SS =      276731.7363     STORAGE                          
              STO-SY =     1113313.6071                STO-SY =       10134.0044     STORAGE                          
                 WEL =     1217577.8419                   WEL =       20000.0000     WEL-1                            
                RCHA =           0.0000                  RCHA =           0.0000     RCH-1                            
                 CHD =    19426752.8494                   CHD =       46351.8613     CHD-FROM-IBOUND                  

           TOTAL OUT =    52083614.9997             TOTAL OUT =      353217.6020

            IN - OUT =          -6.2298              IN - OUT =      -8.4015E-04

 PERCENT DISCREPANCY =          -0.00     PERCENT DISCREPANCY =          -0.00




         TIME SUMMARY AT END OF TIME STEP    1 IN STRESS PERIOD   16
                    SECONDS     MINUTES      HOURS       DAYS        YEARS
                    -----------------------------------------------------------
   TIME STEP LENGTH 1.62336E+05  2705.6      45.093      1.8789     5.14413E-03
 STRESS PERIOD TIME 1.62336E+05  2705.6      45.093      1.8789     5.14413E-03
         TOTAL TIME 3.68823E+07 6.14706E+05  10245.      426.88      1.1687    


end timestep


start timestep kper="16" kstp="2" mode="normal"

 UBDSV1 SAVING     FLOW-JA-FACE ON UNIT   1015 AT TIME STEP      2, STRESS PERIOD     16
 UBDSV06 SAVING              WEL IN MODEL MUMODEL          PACKAGE MUMODEL         CONNECTED TO MODEL MUMODEL          PACKAGE WEL-1            ON UNIT   1015 AT TIME STEP      2, STRESS PERIOD     16
 UBDSV06 SAVING             RCHA IN MODEL MUMODEL          PACKAGE MUMODEL         CONNECTED TO MODEL MUMODEL          PACKAGE RCH-1            ON UNIT   1015 AT TIME STEP      2, STRESS PERIOD     16

 WEL PACKAGE (WEL-1) FLOW RATES   PERIOD     16   STEP        2
 -----------------------------------------------
   NUMBER   CELLID                    RATE      
 -----------------------------------------------
     1      (1,5,5)              -20000.000     
     2      (1,11,5)              0.0000000     
     3      (1,5,5)               0.0000000     
 -----------------------------------------------




 CHD PACKAGE (CHD-FROM-IBOUND) FLOW RATES   PERIOD     16   STEP        2
 -----------------------------------------------
   NUMBER   CELLID                    RATE      
 -----------------------------------------------
     1      (1,1,1)              -2582.0052     
     2      (1,1,2)              -2582.0062     
     3      (1,1,3)              -2582.0053     
     4      (1,1,4)              -2581.9868     
     5      (1,1,5)              -2581.8422     
     6      (1,1,6)              -2581.9844     
     7      (1,1,7)              -2582.0008     
     8      (1,1,8)              -2582.0002     
     9      (1,1,9)              -2581.9989     
     10     (1,21,1)             -2582.0000     
     11     (1,21,2)             -2582.0017     
     12     (1,21,3)             -2582.0036     
     13     (1,21,4)             -2582.0051     
     14     (1,21,5)             -2582.0064     
     15     (1,21,6)             -2582.0077     
     16     (1,21,7)             -2582.0081     
     17     (1,21,8)             -2582.0069     
     18     (1,21,9)             -2582.0048     
 -----------------------------------------------




 HEAD WILL BE SAVED ON UNIT 1016 AT END OF TIME STEP    2, STRESS PERIOD   16


  VOLUME BUDGET FOR ENTIRE MODEL AT END OF TIME STEP    2, STRESS PERIOD  16
  ---------------------------------------------------------------------------------------------------

     CUMULATIVE VOLUME      L**3       RATES FOR THIS TIME STEP      L**3/T          PACKAGE NAME    
     ------------------                 ------------------------                     ----------------

           IN:                                      IN:
           ---                                      ---
              STO-SS =     7275975.5871                STO-SS =       10608.4711     STORAGE                          
              STO-SY =      272829.0542                STO-SY =         413.9677     STORAGE                          
                 WEL =           0.0000                   WEL =           0.0000     WEL-1                            
                RCHA =    45330753.4120                  RCHA =      342000.0000     RCH-1                            
                 CHD =           0.0000                   CHD =           0.0000     CHD-FROM-IBOUND                  

            TOTAL IN =    52879558.0533              TOTAL IN =      353022.4388

          OUT:                                     OUT:
          ----                                     ----
              STO-SS =    30949221.7323                STO-SS =      276426.6563     STORAGE                          
              STO-SY =     1136130.6688                STO-SY =       10119.9096     STORAGE                          
                 WEL =     1262671.2522                   WEL =       20000.0000     WEL-1                            
                RCHA =           0.0000                  RCHA =           0.0000     RCH-1                            
                 CHD =    19531540.6330                   CHD =       46475.8744     CHD-FROM-IBOUND                  

           TOTAL OUT =    52879564.2863             TOTAL OUT =      353022.4402

            IN - OUT =          -6.2330              IN - OUT =      -1.4385E-03

 PERCENT DISCREPANCY =          -0.00     PERCENT DISCREPANCY =          -0.00




         TIME SUMMARY AT END OF TIME STEP    2 IN STRESS PERIOD   16
                    SECONDS     MINUTES      HOURS       DAYS        YEARS
                    -----------------------------------------------------------
   TIME STEP LENGTH 1.94804E+05  3246.7      54.112      2.2547     6.17295E-03
 STRESS PERIOD TIME 3.57140E+05  5952.3      99.206      4.1336     1.13171E-02
         TOTAL TIME 3.70771E+07 6.17952E+05  10299.      429.13      1.1749    


end timestep


start timestep kper="16" kstp="3" mode="normal"

 UBDSV1 SAVING     FLOW-JA-FACE ON UNIT   1015 AT TIME STEP      3, STRESS PERIOD     16
 UBDSV06 SAVING              WEL IN MODEL MUMODEL          PACKAGE MUMODEL         CONNECTED TO MODEL MUMODEL          PACKAGE WEL-1            ON UNIT   1015 AT TIME STEP      3, STRESS PERIOD     16
 UBDSV06 SAVING             RCHA IN MODEL MUMODEL          PACKAGE MUMODEL         CONNECTED TO MODEL MUMODEL          PACKAGE RCH-1            ON UNIT   1015 AT TIME STEP      3, STRESS PERIOD     16

 WEL PACKAGE (WEL-1) FLOW RATES   PERIOD     16   STEP        3
 -----------------------------------------------
   NUMBER   CELLID                    RATE      
 -----------------------------------------------
     1      (1,5,5)              -20000.000     
     2      (1,11,5)              0.0000000     
     3      (1,5,5)               0.0000000     
 -----------------------------------------------




 CHD PACKAGE (CHD-FROM-IBOUND) FLOW RATES   PERIOD     16   STEP        3
 -----------------------------------------------
   NUMBER   CELLID                    RATE      
 -----------------------------------------------
     1      (1,1,1)              -2590.2346     
     2      (1,1,2)              -2590.2356     
     3      (1,1,3)              -2590.2344     
     4      (1,1,4)              -2590.2127     
     5      (1,1,5)              -2590.0481     
     6      (1,1,6)              -2590.2104     
     7      (1,1,7)              -2590.2299     
     8      (1,1,8)              -2590.2296     
     9      (1,1,9)              -2590.2283     
     10     (1,21,1)             -2590.2294     
     11     (1,21,2)             -2590.2311     
     12     (1,21,3)             -2590.2330     
     13     (1,21,4)             -2590.2344     
     14     (1,21,5)             -2590.2358     
     15     (1,21,6)             -2590.2370     
     16     (1,21,7)             -2590.2374     
     17     (1,21,8)             -2590.2362     
     18     (1,21,9)             -2590.2341     
 -----------------------------------------------




 HEAD WILL BE SAVED ON UNIT 1016 AT END OF TIME STEP    3, STRESS PERIOD   16


  VOLUME BUDGET FOR ENTIRE MODEL AT END OF TIME STEP    3, STRESS PERIOD  16
  ---------------------------------------------------------------------------------------------------

     CUMULATIVE VOLUME      L**3       RATES FOR THIS TIME STEP      L**3/T          PACKAGE NAME    
     ------------------                 ------------------------                     ----------------

           IN:                                      IN:
           ---                                      ---
              STO-SS =     7304080.8246                STO-SS =       10387.7844     STORAGE                          
              STO-SY =      273927.5291                STO-SY =         405.9998     STORAGE                          
                 WEL =           0.0000                   WEL =           0.0000     WEL-1                            
                RCHA =    46256070.1908                  RCHA =      342000.0000     RCH-1                            
                 CHD =           0.0000                   CHD =           0.0000     CHD-FROM-IBOUND                  

            TOTAL IN =    53834078.5445              TOTAL IN =      352793.7842

          OUT:                                     OUT:
          ----                                     ----
              STO-SS =    31696148.7437                STO-SS =      276066.5793     STORAGE                          
              STO-SY =     1163466.0290                STO-SY =       10103.2353     STORAGE                          
                 WEL =     1316783.3445                   WEL =       20000.0000     WEL-1                            
                RCHA =           0.0000                  RCHA =           0.0000     RCH-1                            
                 CHD =    19657686.6669                   CHD =       46623.9720     CHD-FROM-IBOUND                  

           TOTAL OUT =    53834084.7841             TOTAL OUT =      352793.7867

            IN - OUT =          -6.2396              IN - OUT =      -2.4388E-03

 PERCENT DISCREPANCY =          -0.00     PERCENT DISCREPANCY =          -0.00




         TIME SUMMARY AT END OF TIME STEP    3 IN STRESS PERIOD   16
                    SECONDS     MINUTES      HOURS       DAYS        YEARS
                    -----------------------------------------------------------
   TIME STEP LENGTH 2.33764E+05  3896.1      64.935      2.7056     7.40754E-03
 STRESS PERIOD TIME 5.90904E+05  9848.4      164.14      6.8392     1.87246E-02
         TOTAL TIME 3.73109E+07 6.21848E+05  10364.      431.84      1.1823    


end timestep


start timestep kper="16" kstp="4" mode="normal"

 UBDSV1 SAVING     FLOW-JA-FACE ON UNIT   1015 AT TIME STEP      4, STRESS PERIOD     16
 UBDSV06 SAVING              WEL IN MODEL MUMODEL          PACKAGE MUMODEL         CONNECTED TO MODEL MUMODEL          PACKAGE WEL-1            ON UNIT   1015 AT TIME STEP      4, STRESS PERIOD     16
 UBDSV06 SAVING             RCHA IN MODEL MUMODEL          PACKAGE MUMODEL         CONNECTED TO MODEL MUMODEL          PACKAGE RCH-1            ON UNIT   1015 AT TIME STEP      4, STRESS PERIOD     16

 WEL PACKAGE (WEL-1) FLOW RATES   PERIOD     16   STEP        4
 -----------------------------------------------
   NUMBER   CELLID                    RATE      
 -----------------------------------------------
     1      (1,5,5)              -20000.000     
     2      (1,11,5)              0.0000000     
     3      (1,5,5)               0.0000000     
 -----------------------------------------------




 CHD PACKAGE (CHD-FROM-IBOUND) FLOW RATES   PERIOD     16   STEP        4
 -----------------------------------------------
   NUMBER   CELLID                    RATE      
 -----------------------------------------------
     1      (1,1,1)              -2600.0533     
     2      (1,1,2)              -2600.0542     
     3      (1,1,3)              -2600.0527     
     4      (1,1,4)              -2600.0267     
     5      (1,1,5)              -2599.8353     
     6      (1,1,6)              -2600.0244     
     7      (1,1,7)              -2600.0482     
     8      (1,1,8)              -2600.0483     
     9      (1,1,9)              -2600.0470     
     10     (1,21,1)             -2600.0482     
     11     (1,21,2)             -2600.0498     
     12     (1,21,3)             -2600.0517     
     13     (1,21,4)             -2600.0532     
     14     (1,21,5)             -2600.0545     
     15     (1,21,6)             -2600.0557     
     16     (1,21,7)             -2600.0561     
     17     (1,21,8)             -2600.0549     
     18     (1,21,9)             -2600.0528     
 -----------------------------------------------




 HEAD WILL BE SAVED ON UNIT 1016 AT END OF TIME STEP    4, STRESS PERIOD   16


  VOLUME BUDGET FOR ENTIRE MODEL AT END OF TIME STEP    4, STRESS PERIOD  16
  ---------------------------------------------------------------------------------------------------

     CUMULATIVE VOLUME      L**3       RATES FOR THIS TIME STEP      L**3/T          PACKAGE NAME    
     ------------------                 ------------------------                     ----------------

           IN:                                      IN:
           ---                                      ---
              STO-SS =     7336971.5777                STO-SS =       10130.4384     STORAGE                          
              STO-SY =      275215.4452                STO-SY =         396.6816     STORAGE                          
                 WEL =           0.0000                   WEL =           0.0000     WEL-1                            
                RCHA =    47366450.3254                  RCHA =      342000.0000     RCH-1                            
                 CHD =           0.0000                   CHD =           0.0000     CHD-FROM-IBOUND                  

            TOTAL IN =    54978637.3483              TOTAL IN =      352527.1200

          OUT:                                     OUT:
          ----                                     ----
              STO-SS =    32591085.5730                STO-SS =      275642.8957     STORAGE                          
              STO-SY =     1196204.5848                STO-SY =       10083.5612     STORAGE                          
                 WEL =     1381717.8553                   WEL =       20000.0000     WEL-1                            
                RCHA =           0.0000                  RCHA =           0.0000     RCH-1                            
                 CHD =    19809635.5882                   CHD =       46800.6671     CHD-FROM-IBOUND                  

           TOTAL OUT =    54978643.6013             TOTAL OUT =      352527.1241

            IN - OUT =          -6.2530              IN - OUT =      -4.1274E-03

 PERCENT DISCREPANCY =          -0.00     PERCENT DISCREPANCY =          -0.00




         TIME SUMMARY AT END OF TIME STEP    4 IN STRESS PERIOD   16
                    SECONDS     MINUTES      HOURS       DAYS        YEARS
                    -----------------------------------------------------------
   TIME STEP LENGTH 2.80517E+05  4675.3      77.921      3.2467     8.88905E-03
 STRESS PERIOD TIME 8.71421E+05  14524.      242.06      10.086     2.76137E-02
         TOTAL TIME 3.75914E+07 6.26524E+05  10442.      435.09      1.1912    


end timestep


start timestep kper="16" kstp="5" mode="normal"

 UBDSV1 SAVING     FLOW-JA-FACE ON UNIT   1015 AT TIME STEP      5, STRESS PERIOD     16
 UBDSV06 SAVING              WEL IN MODEL MUMODEL          PACKAGE MUMODEL         CONNECTED TO MODEL MUMODEL          PACKAGE WEL-1            ON UNIT   1015 AT TIME STEP      5, STRESS PERIOD     16
 UBDSV06 SAVING             RCHA IN MODEL MUMODEL          PACKAGE MUMODEL         CONNECTED TO MODEL MUMODEL          PACKAGE RCH-1            ON UNIT   1015 AT TIME STEP      5, STRESS PERIOD     16

 WEL PACKAGE (WEL-1) FLOW RATES   PERIOD     16   STEP        5
 -----------------------------------------------
   NUMBER   CELLID                    RATE      
 -----------------------------------------------
     1      (1,5,5)              -20000.000     
     2      (1,11,5)              0.0000000     
     3      (1,5,5)               0.0000000     
 -----------------------------------------------




 CHD PACKAGE (CHD-FROM-IBOUND) FLOW RATES   PERIOD     16   STEP        5
 -----------------------------------------------
   NUMBER   CELLID                    RATE      
 -----------------------------------------------
     1      (1,1,1)              -2611.7556     
     2      (1,1,2)              -2611.7564     
     3      (1,1,3)              -2611.7544     
     4      (1,1,4)              -2611.7222     
     5      (1,1,5)              -2611.4945     
     6      (1,1,6)              -2611.7199     
     7      (1,1,7)              -2611.7499     
     8      (1,1,8)              -2611.7505     
     9      (1,1,9)              -2611.7493     
     10     (1,21,1)             -2611.7504     
     11     (1,21,2)             -2611.7521     
     12     (1,21,3)             -2611.7539     
     13     (1,21,4)             -2611.7554     
     14     (1,21,5)             -2611.7568     
     15     (1,21,6)             -2611.7580     
     16     (1,21,7)             -2611.7584     
     17     (1,21,8)             -2611.7571     
     18     (1,21,9)             -2611.7551     
 -----------------------------------------------




 HEAD WILL BE SAVED ON UNIT 1016 AT END OF TIME STEP    5, STRESS PERIOD   16


  VOLUME BUDGET FOR ENTIRE MODEL AT END OF TIME STEP    5, STRESS PERIOD  16
  ---------------------------------------------------------------------------------------------------

     CUMULATIVE VOLUME      L**3       RATES FOR THIS TIME STEP      L**3/T          PACKAGE NAME    
     ------------------                 ------------------------                     ----------------

           IN:                                      IN:
           ---                                      ---
              STO-SS =     7375277.6578                STO-SS =        9831.9778     STORAGE                          
              STO-SY =      276718.6974                STO-SY =         385.8380     STORAGE                          
                 WEL =           0.0000                   WEL =           0.0000     WEL-1                            
                RCHA =    48698906.4868                  RCHA =      342000.0000     RCH-1                            
                 CHD =           0.0000                   CHD =           0.0000     CHD-FROM-IBOUND                  

            TOTAL IN =    56350902.8420              TOTAL IN =      352217.8158

          OUT:                                     OUT:
          ----                                     ----
              STO-SS =    33663074.4047                STO-SS =      275146.1482     STORAGE                          
              STO-SY =     1235400.6839                STO-SY =       10060.4180     STORAGE                          
                 WEL =     1459639.2682                   WEL =       20000.0000     WEL-1                            
                RCHA =           0.0000                  RCHA =           0.0000     RCH-1                            
                 CHD =    19992794.7384                   CHD =       47011.2497     CHD-FROM-IBOUND                  

           TOTAL OUT =    56350909.0952             TOTAL OUT =      352217.8159

            IN - OUT =          -6.2532              IN - OUT =      -4.9955E-05

 PERCENT DISCREPANCY =          -0.00     PERCENT DISCREPANCY =          -0.00




         TIME SUMMARY AT END OF TIME STEP    5 IN STRESS PERIOD   16
                    SECONDS     MINUTES      HOURS       DAYS        YEARS
                    -----------------------------------------------------------
   TIME STEP LENGTH 3.36621E+05  5610.3      93.506      3.8961     1.06669E-02
 STRESS PERIOD TIME 1.20804E+06  20134.      335.57      13.982     3.82805E-02
         TOTAL TIME 3.79280E+07 6.32134E+05  10536.      438.98      1.2019    


end timestep


start timestep kper="16" kstp="6" mode="normal"

 UBDSV1 SAVING     FLOW-JA-FACE ON UNIT   1015 AT TIME STEP      6, STRESS PERIOD     16
 UBDSV06 SAVING              WEL IN MODEL MUMODEL          PACKAGE MUMODEL         CONNECTED TO MODEL MUMODEL          PACKAGE WEL-1            ON UNIT   1015 AT TIME STEP      6, STRESS PERIOD     16
 UBDSV06 SAVING             RCHA IN MODEL MUMODEL          PACKAGE MUMODEL         CONNECTED TO MODEL MUMODEL          PACKAGE RCH-1            ON UNIT   1015 AT TIME STEP      6, STRESS PERIOD     16

 WEL PACKAGE (WEL-1) FLOW RATES   PERIOD     16   STEP        6
 -----------------------------------------------
   NUMBER   CELLID                    RATE      
 -----------------------------------------------
     1      (1,5,5)              -20000.000     
     2      (1,11,5)              0.0000000     
     3      (1,5,5)               0.0000000     
 -----------------------------------------------




 CHD PACKAGE (CHD-FROM-IBOUND) FLOW RATES   PERIOD     16   STEP        6
 -----------------------------------------------
   NUMBER   CELLID                    RATE      
 -----------------------------------------------
     1      (1,1,1)              -2625.6847     
     2      (1,1,2)              -2625.6855     
     3      (1,1,3)              -2625.6826     
     4      (1,1,4)              -2625.6414     
     5      (1,1,5)              -2625.3638     
     6      (1,1,6)              -2625.6391     
     7      (1,1,7)              -2625.6782     
     8      (1,1,8)              -2625.6796     
     9      (1,1,9)              -2625.6784     
     10     (1,21,1)             -2625.6796     
     11     (1,21,2)             -2625.6812     
     12     (1,21,3)             -2625.6831     
     13     (1,21,4)             -2625.6845     
     14     (1,21,5)             -2625.6859     
     15     (1,21,6)             -2625.6871     
     16     (1,21,7)             -2625.6875     
     17     (1,21,8)             -2625.6862     
     18     (1,21,9)             -2625.6842     
 -----------------------------------------------




 HEAD WILL BE SAVED ON UNIT 1016 AT END OF TIME STEP    6, STRESS PERIOD   16


  VOLUME BUDGET FOR ENTIRE MODEL AT END OF TIME STEP    6, STRESS PERIOD  16
  ---------------------------------------------------------------------------------------------------

     CUMULATIVE VOLUME      L**3       RATES FOR THIS TIME STEP      L**3/T          PACKAGE NAME    
     ------------------                 ------------------------                     ----------------

           IN:                                      IN:
           ---                                      ---
              STO-SS =     7419637.0256                STO-SS =        9488.0569     STORAGE                          
              STO-SY =      278463.9496                STO-SY =         373.2932     STORAGE                          
                 WEL =           0.0000                   WEL =           0.0000     WEL-1                            
                RCHA =    50297853.8805                  RCHA =      342000.0000     RCH-1                            
                 CHD =           0.0000                   CHD =           0.0000     CHD-FROM-IBOUND                  

            TOTAL IN =    57995954.8557              TOTAL IN =      351861.3501

          OUT:                                     OUT:
          ----                                     ----
              STO-SS =    34946749.4280                STO-SS =      274566.1675     STORAGE                          
              STO-SY =     1282309.1719                STO-SY =       10033.2900     STORAGE                          
                 WEL =     1553144.9638                   WEL =       20000.0000     WEL-1                            
                RCHA =           0.0000                  RCHA =           0.0000     RCH-1                            
                 CHD =    20213757.5457                   CHD =       47261.8927     CHD-FROM-IBOUND                  

           TOTAL OUT =    57995961.1093             TOTAL OUT =      351861.3502

            IN - OUT =          -6.2536              IN - OUT =      -8.3849E-05

 PERCENT DISCREPANCY =          -0.00     PERCENT DISCREPANCY =          -0.00




         TIME SUMMARY AT END OF TIME STEP    6 IN STRESS PERIOD   16
                    SECONDS     MINUTES      HOURS       DAYS        YEARS
                    -----------------------------------------------------------
   TIME STEP LENGTH 4.03945E+05  6732.4      112.21      4.6753     1.28002E-02
 STRESS PERIOD TIME 1.61199E+06  26866.      447.77      18.657     5.10808E-02
         TOTAL TIME 3.83320E+07 6.38866E+05  10648.      443.66      1.2147    


end timestep


start timestep kper="16" kstp="7" mode="normal"

 UBDSV1 SAVING     FLOW-JA-FACE ON UNIT   1015 AT TIME STEP      7, STRESS PERIOD     16
 UBDSV06 SAVING              WEL IN MODEL MUMODEL          PACKAGE MUMODEL         CONNECTED TO MODEL MUMODEL          PACKAGE WEL-1            ON UNIT   1015 AT TIME STEP      7, STRESS PERIOD     16
 UBDSV06 SAVING             RCHA IN MODEL MUMODEL          PACKAGE MUMODEL         CONNECTED TO MODEL MUMODEL          PACKAGE RCH-1            ON UNIT   1015 AT TIME STEP      7, STRESS PERIOD     16

 WEL PACKAGE (WEL-1) FLOW RATES   PERIOD     16   STEP        7
 -----------------------------------------------
   NUMBER   CELLID                    RATE      
 -----------------------------------------------
     1      (1,5,5)              -20000.000     
     2      (1,11,5)              0.0000000     
     3      (1,5,5)               0.0000000     
 -----------------------------------------------




 CHD PACKAGE (CHD-FROM-IBOUND) FLOW RATES   PERIOD     16   STEP        7
 -----------------------------------------------
   NUMBER   CELLID                    RATE      
 -----------------------------------------------
     1      (1,1,1)              -2642.2394     
     2      (1,1,2)              -2642.2401     
     3      (1,1,3)              -2642.2359     
     4      (1,1,4)              -2642.1812     
     5      (1,1,5)              -2641.8341     
     6      (1,1,6)              -2642.1790     
     7      (1,1,7)              -2642.2315     
     8      (1,1,8)              -2642.2343     
     9      (1,1,9)              -2642.2332     
     10     (1,21,1)             -2642.2344     
     11     (1,21,2)             -2642.2360     
     12     (1,21,3)             -2642.2378     
     13     (1,21,4)             -2642.2393     
     14     (1,21,5)             -2642.2406     
     15     (1,21,6)             -2642.2418     
     16     (1,21,7)             -2642.2421     
     17     (1,21,8)             -2642.2409     
     18     (1,21,9)             -2642.2389     
 -----------------------------------------------




 HEAD WILL BE SAVED ON UNIT 1016 AT END OF TIME STEP    7, STRESS PERIOD   16


  VOLUME BUDGET FOR ENTIRE MODEL AT END OF TIME STEP    7, STRESS PERIOD  16
  ---------------------------------------------------------------------------------------------------

     CUMULATIVE VOLUME      L**3       RATES FOR THIS TIME STEP      L**3/T          PACKAGE NAME    
     ------------------                 ------------------------                     ----------------

           IN:                                      IN:
           ---                                      ---
              STO-SS =     7470661.6283                STO-SS =        9094.7406     STORAGE                          
              STO-SY =      280477.3903                STO-SY =         358.8802     STORAGE                          
                 WEL =           0.0000                   WEL =           0.0000     WEL-1                            
                RCHA =    52216590.7530                  RCHA =      342000.0000     RCH-1                            
                 CHD =           0.0000                   CHD =           0.0000     CHD-FROM-IBOUND                  

            TOTAL IN =    59967729.7716              TOTAL IN =      351453.6208

          OUT:                                     OUT:
          ----                                     ----
              STO-SS =    36483378.4978                STO-SS =      273892.2410     STORAGE                          
              STO-SY =     1338421.6744                STO-SY =       10001.6194     STORAGE                          
                 WEL =     1665351.7984                   WEL =       20000.0000     WEL-1                            
                RCHA =           0.0000                  RCHA =           0.0000     RCH-1                            
                 CHD =    20480584.0553                   CHD =       47559.7606     CHD-FROM-IBOUND                  

           TOTAL OUT =    59967736.0260             TOTAL OUT =      351453.6210

            IN - OUT =          -6.2544              IN - OUT =      -1.3596E-04

 PERCENT DISCREPANCY =          -0.00     PERCENT DISCREPANCY =          -0.00




         TIME SUMMARY AT END OF TIME STEP    7 IN STRESS PERIOD   16
                    SECONDS     MINUTES      HOURS       DAYS        YEARS
                    -----------------------------------------------------------
   TIME STEP LENGTH 4.84734E+05  8078.9      134.65      5.6103     1.53603E-02
 STRESS PERIOD TIME 2.09672E+06  34945.      582.42      24.268     6.64410E-02
         TOTAL TIME 3.88167E+07 6.46945E+05  10782.      449.27      1.2300    


end timestep


start timestep kper="16" kstp="8" mode="normal"

 UBDSV1 SAVING     FLOW-JA-FACE ON UNIT   1015 AT TIME STEP      8, STRESS PERIOD     16
 UBDSV06 SAVING              WEL IN MODEL MUMODEL          PACKAGE MUMODEL         CONNECTED TO MODEL MUMODEL          PACKAGE WEL-1            ON UNIT   1015 AT TIME STEP      8, STRESS PERIOD     16
 UBDSV06 SAVING             RCHA IN MODEL MUMODEL          PACKAGE MUMODEL         CONNECTED TO MODEL MUMODEL          PACKAGE RCH-1            ON UNIT   1015 AT TIME STEP      8, STRESS PERIOD     16

 WEL PACKAGE (WEL-1) FLOW RATES   PERIOD     16   STEP        8
 -----------------------------------------------
   NUMBER   CELLID                    RATE      
 -----------------------------------------------
     1      (1,5,5)              -20000.000     
     2      (1,11,5)              0.0000000     
     3      (1,5,5)               0.0000000     
 -----------------------------------------------




 CHD PACKAGE (CHD-FROM-IBOUND) FLOW RATES   PERIOD     16   STEP        8
 -----------------------------------------------
   NUMBER   CELLID                    RATE      
 -----------------------------------------------
     1      (1,1,1)              -2661.8798     
     2      (1,1,2)              -2661.8804     
     3      (1,1,3)              -2661.8741     
     4      (1,1,4)              -2661.7988     
     5      (1,1,5)              -2661.3533     
     6      (1,1,6)              -2661.7965     
     7      (1,1,7)              -2661.8697     
     8      (1,1,8)              -2661.8746     
     9      (1,1,9)              -2661.8737     
     10     (1,21,1)             -2661.8749     
     11     (1,21,2)             -2661.8765     
     12     (1,21,3)             -2661.8783     
     13     (1,21,4)             -2661.8797     
     14     (1,21,5)             -2661.8810     
     15     (1,21,6)             -2661.8822     
     16     (1,21,7)             -2661.8826     
     17     (1,21,8)             -2661.8814     
     18     (1,21,9)             -2661.8794     
 -----------------------------------------------




 HEAD WILL BE SAVED ON UNIT 1016 AT END OF TIME STEP    8, STRESS PERIOD   16


  VOLUME BUDGET FOR ENTIRE MODEL AT END OF TIME STEP    8, STRESS PERIOD  16
  ---------------------------------------------------------------------------------------------------

     CUMULATIVE VOLUME      L**3       RATES FOR THIS TIME STEP      L**3/T          PACKAGE NAME    
     ------------------                 ------------------------                     ----------------

           IN:                                      IN:
           ---                                      ---
              STO-SS =     7529769.3214                STO-SS =        8779.5741     STORAGE                          
              STO-SY =      282815.8872                STO-SY =         347.3491     STORAGE                          
                 WEL =           0.0000                   WEL =           0.0000     WEL-1                            
                RCHA =    54519075.0000                  RCHA =      342000.0000     RCH-1                            
                 CHD =           0.0000                   CHD =           0.0000     CHD-FROM-IBOUND                  

            TOTAL IN =    62331660.2086              TOTAL IN =      351126.9232

          OUT:                                     OUT:
          ----                                     ----
              STO-SS =    38322969.8132                STO-SS =      273244.0974     STORAGE                          
              STO-SY =     1405541.8462                STO-SY =        9969.7094     STORAGE                          
                 WEL =     1800000.0000                   WEL =       20000.0000     WEL-1                            
                RCHA =           0.0000                  RCHA =           0.0000     RCH-1                            
                 CHD =    20803154.8050                   CHD =       47913.1167     CHD-FROM-IBOUND                  

           TOTAL OUT =    62331666.4644             TOTAL OUT =      351126.9234

            IN - OUT =          -6.2558              IN - OUT =      -2.1701E-04

 PERCENT DISCREPANCY =          -0.00     PERCENT DISCREPANCY =          -0.00




         TIME SUMMARY AT END OF TIME STEP    8 IN STRESS PERIOD   16
                    SECONDS     MINUTES      HOURS       DAYS        YEARS
                    -----------------------------------------------------------
   TIME STEP LENGTH 5.81680E+05  9694.7      161.58      6.7324     1.84323E-02
 STRESS PERIOD TIME 2.67840E+06  44640.      744.00      31.000     8.48734E-02
         TOTAL TIME 3.93984E+07 6.56640E+05  10944.      456.00      1.2485    


end timestep


start timestep kper="17" kstp="1" mode="normal"


 OUTPUT CONTROL FOR STRESS PERIOD 17 IS REPEATED USING SETTINGS FROM A PREVIOUS STRESS PERIOD.


 STRESS PERIOD 17 IS TRANSIENT


 REUSING WELS FROM LAST STRESS PERIOD

 REUSING CHDS FROM LAST STRESS PERIOD
 UBDSV1 SAVING     FLOW-JA-FACE ON UNIT   1015 AT TIME STEP      1, STRESS PERIOD     17
 UBDSV06 SAVING              WEL IN MODEL MUMODEL          PACKAGE MUMODEL         CONNECTED TO MODEL MUMODEL          PACKAGE WEL-1            ON UNIT   1015 AT TIME STEP      1, STRESS PERIOD     17
 UBDSV06 SAVING             RCHA IN MODEL MUMODEL          PACKAGE MUMODEL         CONNECTED TO MODEL MUMODEL          PACKAGE RCH-1            ON UNIT   1015 AT TIME STEP      1, STRESS PERIOD     17

 WEL PACKAGE (WEL-1) FLOW RATES   PERIOD     17   STEP        1
 -----------------------------------------------
   NUMBER   CELLID                    RATE      
 -----------------------------------------------
     1      (1,5,5)              -20000.000     
     2      (1,11,5)              0.0000000     
     3      (1,5,5)               0.0000000     
 -----------------------------------------------




 CHD PACKAGE (CHD-FROM-IBOUND) FLOW RATES   PERIOD     17   STEP        1
 -----------------------------------------------
   NUMBER   CELLID                    RATE      
 -----------------------------------------------
     1      (1,1,1)              -2665.4497     
     2      (1,1,2)              -2665.4502     
     3      (1,1,3)              -2665.4433     
     4      (1,1,4)              -2665.3621     
     5      (1,1,5)              -2664.8888     
     6      (1,1,6)              -2665.3598     
     7      (1,1,7)              -2665.4389     
     8      (1,1,8)              -2665.4445     
     9      (1,1,9)              -2665.4436     
     10     (1,21,1)             -2665.4448     
     11     (1,21,2)             -2665.4464     
     12     (1,21,3)             -2665.4482     
     13     (1,21,4)             -2665.4496     
     14     (1,21,5)             -2665.4509     
     15     (1,21,6)             -2665.4521     
     16     (1,21,7)             -2665.4524     
     17     (1,21,8)             -2665.4512     
     18     (1,21,9)             -2665.4493     
 -----------------------------------------------




 HEAD WILL BE SAVED ON UNIT 1016 AT END OF TIME STEP    1, STRESS PERIOD   17


  VOLUME BUDGET FOR ENTIRE MODEL AT END OF TIME STEP    1, STRESS PERIOD  17
  ---------------------------------------------------------------------------------------------------

     CUMULATIVE VOLUME      L**3       RATES FOR THIS TIME STEP      L**3/T          PACKAGE NAME    
     ------------------                 ------------------------                     ----------------

           IN:                                      IN:
           ---                                      ---
              STO-SS =     7550000.6350                STO-SS =       11126.6053     STORAGE                          
              STO-SY =      283609.2043                STO-SY =         436.3002     STORAGE                          
                 WEL =           0.0000                   WEL =           0.0000     WEL-1                            
                RCHA =    54985464.5054                  RCHA =      256500.0000     RCH-1                            
                 CHD =           0.0000                   CHD =           0.0000     CHD-FROM-IBOUND                  

            TOTAL IN =    62819074.3447              TOTAL IN =      268062.9055

          OUT:                                     OUT:
          ----                                     ----
              STO-SS =    38673997.9475                STO-SS =      193054.7652     STORAGE                          
              STO-SY =     1418325.8553                STO-SY =        7030.8150     STORAGE                          
                 WEL =     1836365.6534                   WEL =       20000.0000     WEL-1                            
                RCHA =           0.0000                  RCHA =           0.0000     RCH-1                            
                 CHD =    20890391.1451                   CHD =       47977.3258     CHD-FROM-IBOUND                  

           TOTAL OUT =    62819080.6014             TOTAL OUT =      268062.9060

            IN - OUT =          -6.2566              IN - OUT =      -4.4029E-04

 PERCENT DISCREPANCY =          -0.00     PERCENT DISCREPANCY =          -0.00




         TIME SUMMARY AT END OF TIME STEP    1 IN STRESS PERIOD   17
                    SECONDS     MINUTES      HOURS       DAYS        YEARS
                    -----------------------------------------------------------
   TIME STEP LENGTH 1.57100E+05  2618.3      43.639      1.8183     4.97819E-03
 STRESS PERIOD TIME 1.57100E+05  2618.3      43.639      1.8183     4.97819E-03
         TOTAL TIME 3.95555E+07 6.59258E+05  10988.      457.82      1.2534    


end timestep


start timestep kper="17" kstp="2" mode="normal"

 UBDSV1 SAVING     FLOW-JA-FACE ON UNIT   1015 AT TIME STEP      2, STRESS PERIOD     17
 UBDSV06 SAVING              WEL IN MODEL MUMODEL          PACKAGE MUMODEL         CONNECTED TO MODEL MUMODEL          PACKAGE WEL-1            ON UNIT   1015 AT TIME STEP      2, STRESS PERIOD     17
 UBDSV06 SAVING             RCHA IN MODEL MUMODEL          PACKAGE MUMODEL         CONNECTED TO MODEL MUMODEL          PACKAGE RCH-1            ON UNIT   1015 AT TIME STEP      2, STRESS PERIOD     17

 WEL PACKAGE (WEL-1) FLOW RATES   PERIOD     17   STEP        2
 -----------------------------------------------
   NUMBER   CELLID                    RATE      
 -----------------------------------------------
     1      (1,5,5)              -20000.000     
     2      (1,11,5)              0.0000000     
     3      (1,5,5)               0.0000000     
 -----------------------------------------------




 CHD PACKAGE (CHD-FROM-IBOUND) FLOW RATES   PERIOD     17   STEP        2
 -----------------------------------------------
   NUMBER   CELLID                    RATE      
 -----------------------------------------------
     1      (1,1,1)              -2669.7187     
     2      (1,1,2)              -2669.7191     
     3      (1,1,3)              -2669.7114     
     4      (1,1,4)              -2669.6226     
     5      (1,1,5)              -2669.1145     
     6      (1,1,6)              -2669.6203     
     7      (1,1,7)              -2669.7070     
     8      (1,1,8)              -2669.7134     
     9      (1,1,9)              -2669.7126     
     10     (1,21,1)             -2669.7138     
     11     (1,21,2)             -2669.7154     
     12     (1,21,3)             -2669.7171     
     13     (1,21,4)             -2669.7186     
     14     (1,21,5)             -2669.7199     
     15     (1,21,6)             -2669.7210     
     16     (1,21,7)             -2669.7214     
     17     (1,21,8)             -2669.7202     
     18     (1,21,9)             -2669.7183     
 -----------------------------------------------




 HEAD WILL BE SAVED ON UNIT 1016 AT END OF TIME STEP    2, STRESS PERIOD   17


  VOLUME BUDGET FOR ENTIRE MODEL AT END OF TIME STEP    2, STRESS PERIOD  17
  ---------------------------------------------------------------------------------------------------

     CUMULATIVE VOLUME      L**3       RATES FOR THIS TIME STEP      L**3/T          PACKAGE NAME    
     ------------------                 ------------------------                     ----------------

           IN:                                      IN:
           ---                                      ---
              STO-SS =     7574115.6055                STO-SS =       11052.0817     STORAGE                          
              STO-SY =      284555.2518                STO-SY =         433.5811     STORAGE                          
                 WEL =           0.0000                   WEL =           0.0000     WEL-1                            
                RCHA =    55545131.9120                  RCHA =      256500.0000     RCH-1                            
                 CHD =           0.0000                   CHD =           0.0000     CHD-FROM-IBOUND                  

            TOTAL IN =    63403802.7692              TOTAL IN =      267985.6628

          OUT:                                     OUT:
          ----                                     ----
              STO-SS =    39094910.5702                STO-SS =      192907.5849     STORAGE                          
              STO-SY =     1433651.7384                STO-SY =        7023.9735     STORAGE                          
                 WEL =     1880004.4376                   WEL =       20000.0000     WEL-1                            
                RCHA =           0.0000                  RCHA =           0.0000     RCH-1                            
                 CHD =    20995242.2812                   CHD =       48054.1052     CHD-FROM-IBOUND                  

           TOTAL OUT =    63403809.0274             TOTAL OUT =      267985.6635

            IN - OUT =          -6.2583              IN - OUT =      -7.5363E-04

 PERCENT DISCREPANCY =          -0.00     PERCENT DISCREPANCY =          -0.00




         TIME SUMMARY AT END OF TIME STEP    2 IN STRESS PERIOD   17
                    SECONDS     MINUTES      HOURS       DAYS        YEARS
                    -----------------------------------------------------------
   TIME STEP LENGTH 1.88520E+05  3142.0      52.367      2.1819     5.97382E-03
 STRESS PERIOD TIME 3.45619E+05  5760.3      96.005      4.0002     1.09520E-02
         TOTAL TIME 3.97440E+07 6.62400E+05  11040.      460.00      1.2594    


end timestep


start timestep kper="17" kstp="3" mode="normal"

 UBDSV1 SAVING     FLOW-JA-FACE ON UNIT   1015 AT TIME STEP      3, STRESS PERIOD     17
 UBDSV06 SAVING              WEL IN MODEL MUMODEL          PACKAGE MUMODEL         CONNECTED TO MODEL MUMODEL          PACKAGE WEL-1            ON UNIT   1015 AT TIME STEP      3, STRESS PERIOD     17
 UBDSV06 SAVING             RCHA IN MODEL MUMODEL          PACKAGE MUMODEL         CONNECTED TO MODEL MUMODEL          PACKAGE RCH-1            ON UNIT   1015 AT TIME STEP      3, STRESS PERIOD     17

 WEL PACKAGE (WEL-1) FLOW RATES   PERIOD     17   STEP        3
 -----------------------------------------------
   NUMBER   CELLID                    RATE      
 -----------------------------------------------
     1      (1,5,5)              -20000.000     
     2      (1,11,5)              0.0000000     
     3      (1,5,5)               0.0000000     
 -----------------------------------------------




 CHD PACKAGE (CHD-FROM-IBOUND) FLOW RATES   PERIOD     17   STEP        3
 -----------------------------------------------
   NUMBER   CELLID                    RATE      
 -----------------------------------------------
     1      (1,1,1)              -2674.8203     
     2      (1,1,2)              -2674.8206     
     3      (1,1,3)              -2674.8118     
     4      (1,1,4)              -2674.7132     
     5      (1,1,5)              -2674.1609     
     6      (1,1,6)              -2674.7109     
     7      (1,1,7)              -2674.8075     
     8      (1,1,8)              -2674.8149     
     9      (1,1,9)              -2674.8142     
     10     (1,21,1)             -2674.8154     
     11     (1,21,2)             -2674.8170     
     12     (1,21,3)             -2674.8188     
     13     (1,21,4)             -2674.8202     
     14     (1,21,5)             -2674.8215     
     15     (1,21,6)             -2674.8227     
     16     (1,21,7)             -2674.8230     
     17     (1,21,8)             -2674.8218     
     18     (1,21,9)             -2674.8199     
 -----------------------------------------------




 HEAD WILL BE SAVED ON UNIT 1016 AT END OF TIME STEP    3, STRESS PERIOD   17


  VOLUME BUDGET FOR ENTIRE MODEL AT END OF TIME STEP    3, STRESS PERIOD  17
  ---------------------------------------------------------------------------------------------------

     CUMULATIVE VOLUME      L**3       RATES FOR THIS TIME STEP      L**3/T          PACKAGE NAME    
     ------------------                 ------------------------                     ----------------

           IN:                                      IN:
           ---                                      ---
              STO-SS =     7602818.0685                STO-SS =       10962.1382     STORAGE                          
              STO-SY =      285681.8823                STO-SY =         430.2864     STORAGE                          
                 WEL =           0.0000                   WEL =           0.0000     WEL-1                            
                RCHA =    56216732.7998                  RCHA =      256500.0000     RCH-1                            
                 CHD =           0.0000                   CHD =           0.0000     CHD-FROM-IBOUND                  

            TOTAL IN =    64105232.7505              TOTAL IN =      267892.4246

          OUT:                                     OUT:
          ----                                     ----
              STO-SS =    39599542.8542                STO-SS =      192730.8066     STORAGE                          
              STO-SY =     1452021.3052                STO-SY =        7015.7648     STORAGE                          
                 WEL =     1932370.9785                   WEL =       20000.0000     WEL-1                            
                RCHA =           0.0000                  RCHA =           0.0000     RCH-1                            
                 CHD =    21121303.8743                   CHD =       48145.8545     CHD-FROM-IBOUND                  

           TOTAL OUT =    64105239.0122             TOTAL OUT =      267892.4259

            IN - OUT =          -6.2616              IN - OUT =      -1.2810E-03

 PERCENT DISCREPANCY =          -0.00     PERCENT DISCREPANCY =          -0.00




         TIME SUMMARY AT END OF TIME STEP    3 IN STRESS PERIOD   17
                    SECONDS     MINUTES      HOURS       DAYS        YEARS
                    -----------------------------------------------------------
   TIME STEP LENGTH 2.26223E+05  3770.4      62.840      2.6183     7.16859E-03
 STRESS PERIOD TIME 5.71843E+05  9530.7      158.85      6.6185     1.81206E-02
         TOTAL TIME 3.99702E+07 6.66171E+05  11103.      462.62      1.2666    


end timestep


start timestep kper="17" kstp="4" mode="normal"

 UBDSV1 SAVING     FLOW-JA-FACE ON UNIT   1015 AT TIME STEP      4, STRESS PERIOD     17
 UBDSV06 SAVING              WEL IN MODEL MUMODEL          PACKAGE MUMODEL         CONNECTED TO MODEL MUMODEL          PACKAGE WEL-1            ON UNIT   1015 AT TIME STEP      4, STRESS PERIOD     17
 UBDSV06 SAVING             RCHA IN MODEL MUMODEL          PACKAGE MUMODEL         CONNECTED TO MODEL MUMODEL          PACKAGE RCH-1            ON UNIT   1015 AT TIME STEP      4, STRESS PERIOD     17

 WEL PACKAGE (WEL-1) FLOW RATES   PERIOD     17   STEP        4
 -----------------------------------------------
   NUMBER   CELLID                    RATE      
 -----------------------------------------------
     1      (1,5,5)              -20000.000     
     2      (1,11,5)              0.0000000     
     3      (1,5,5)               0.0000000     
 -----------------------------------------------




 CHD PACKAGE (CHD-FROM-IBOUND) FLOW RATES   PERIOD     17   STEP        4
 -----------------------------------------------
   NUMBER   CELLID                    RATE      
 -----------------------------------------------
     1      (1,1,1)              -2680.9121     
     2      (1,1,2)              -2680.9123     
     3      (1,1,3)              -2680.9020     
     4      (1,1,4)              -2680.7904     
     5      (1,1,5)              -2680.1815     
     6      (1,1,6)              -2680.7881     
     7      (1,1,7)              -2680.8977     
     8      (1,1,8)              -2680.9066     
     9      (1,1,9)              -2680.9060     
     10     (1,21,1)             -2680.9073     
     11     (1,21,2)             -2680.9088     
     12     (1,21,3)             -2680.9106     
     13     (1,21,4)             -2680.9120     
     14     (1,21,5)             -2680.9133     
     15     (1,21,6)             -2680.9145     
     16     (1,21,7)             -2680.9148     
     17     (1,21,8)             -2680.9136     
     18     (1,21,9)             -2680.9117     
 -----------------------------------------------




 HEAD WILL BE SAVED ON UNIT 1016 AT END OF TIME STEP    4, STRESS PERIOD   17


  VOLUME BUDGET FOR ENTIRE MODEL AT END OF TIME STEP    4, STRESS PERIOD  17
  ---------------------------------------------------------------------------------------------------

     CUMULATIVE VOLUME      L**3       RATES FOR THIS TIME STEP      L**3/T          PACKAGE NAME    
     ------------------                 ------------------------                     ----------------

           IN:                                      IN:
           ---                                      ---
              STO-SS =     7636919.8906                STO-SS =       10853.5659     STORAGE                          
              STO-SY =      287021.2885                STO-SY =         426.2920     STORAGE                          
                 WEL =           0.0000                   WEL =           0.0000     WEL-1                            
                RCHA =    57022653.8652                  RCHA =      256500.0000     RCH-1                            
                 CHD =           0.0000                   CHD =           0.0000     CHD-FROM-IBOUND                  

            TOTAL IN =    64946595.0443              TOTAL IN =      267779.8579

          OUT:                                     OUT:
          ----                                     ----
              STO-SS =    40204434.6457                STO-SS =      192518.5371     STORAGE                          
              STO-SY =     1474033.8514                STO-SY =        7005.9195     STORAGE                          
                 WEL =     1995210.8277                   WEL =       20000.0000     WEL-1                            
                RCHA =           0.0000                  RCHA =           0.0000     RCH-1                            
                 CHD =    21272921.9879                   CHD =       48255.4034     CHD-FROM-IBOUND                  

           TOTAL OUT =    64946601.3127             TOTAL OUT =      267779.8600

            IN - OUT =          -6.2684              IN - OUT =      -2.1728E-03

 PERCENT DISCREPANCY =          -0.00     PERCENT DISCREPANCY =          -0.00




         TIME SUMMARY AT END OF TIME STEP    4 IN STRESS PERIOD   17
                    SECONDS     MINUTES      HOURS       DAYS        YEARS
                    -----------------------------------------------------------
   TIME STEP LENGTH 2.71468E+05  4524.5      75.408      3.1420     8.60231E-03
 STRESS PERIOD TIME 8.43311E+05  14055.      234.25      9.7605     2.67229E-02
         TOTAL TIME 4.02417E+07 6.70695E+05  11178.      465.76      1.2752    


end timestep


start timestep kper="17" kstp="5" mode="normal"

 UBDSV1 SAVING     FLOW-JA-FACE ON UNIT   1015 AT TIME STEP      5, STRESS PERIOD     17
 UBDSV06 SAVING              WEL IN MODEL MUMODEL          PACKAGE MUMODEL         CONNECTED TO MODEL MUMODEL          PACKAGE WEL-1            ON UNIT   1015 AT TIME STEP      5, STRESS PERIOD     17
 UBDSV06 SAVING             RCHA IN MODEL MUMODEL          PACKAGE MUMODEL         CONNECTED TO MODEL MUMODEL          PACKAGE RCH-1            ON UNIT   1015 AT TIME STEP      5, STRESS PERIOD     17

 WEL PACKAGE (WEL-1) FLOW RATES   PERIOD     17   STEP        5
 -----------------------------------------------
   NUMBER   CELLID                    RATE      
 -----------------------------------------------
     1      (1,5,5)              -20000.000     
     2      (1,11,5)              0.0000000     
     3      (1,5,5)               0.0000000     
 -----------------------------------------------




 CHD PACKAGE (CHD-FROM-IBOUND) FLOW RATES   PERIOD     17   STEP        5
 -----------------------------------------------
   NUMBER   CELLID                    RATE      
 -----------------------------------------------
     1      (1,1,1)              -2688.1795     
     2      (1,1,2)              -2688.1795     
     3      (1,1,3)              -2688.1672     
     4      (1,1,4)              -2688.0381     
     5      (1,1,5)              -2687.3562     
     6      (1,1,6)              -2688.0359     
     7      (1,1,7)              -2688.1629     
     8      (1,1,8)              -2688.1738     
     9      (1,1,9)              -2688.1734     
     10     (1,21,1)             -2688.1747     
     11     (1,21,2)             -2688.1762     
     12     (1,21,3)             -2688.1780     
     13     (1,21,4)             -2688.1794     
     14     (1,21,5)             -2688.1807     
     15     (1,21,6)             -2688.1818     
     16     (1,21,7)             -2688.1821     
     17     (1,21,8)             -2688.1810     
     18     (1,21,9)             -2688.1791     
 -----------------------------------------------




 HEAD WILL BE SAVED ON UNIT 1016 AT END OF TIME STEP    5, STRESS PERIOD   17


  VOLUME BUDGET FOR ENTIRE MODEL AT END OF TIME STEP    5, STRESS PERIOD  17
  ---------------------------------------------------------------------------------------------------

     CUMULATIVE VOLUME      L**3       RATES FOR THIS TIME STEP      L**3/T          PACKAGE NAME    
     ------------------                 ------------------------                     ----------------

           IN:                                      IN:
           ---                                      ---
              STO-SS =     7677347.9875                STO-SS =       10722.5212     STORAGE                          
              STO-SY =      288610.3114                STO-SY =         421.4478     STORAGE                          
                 WEL =           0.0000                   WEL =           0.0000     WEL-1                            
                RCHA =    57989759.1436                  RCHA =      256500.0000     RCH-1                            
                 CHD =           0.0000                   CHD =           0.0000     CHD-FROM-IBOUND                  

            TOTAL IN =    65955717.4426              TOTAL IN =      267643.9690

          OUT:                                     OUT:
          ----                                     ----
              STO-SS =    40929344.2298                STO-SS =      192263.7716     STORAGE                          
              STO-SY =     1500404.4110                STO-SY =        6994.1181     STORAGE                          
                 WEL =     2070618.6467                   WEL =       20000.0000     WEL-1                            
                RCHA =           0.0000                  RCHA =           0.0000     RCH-1                            
                 CHD =    21455356.4236                   CHD =       48386.0794     CHD-FROM-IBOUND                  

           TOTAL OUT =    65955723.7112             TOTAL OUT =      267643.9690

            IN - OUT =          -6.2686              IN - OUT =      -3.9650E-05

 PERCENT DISCREPANCY =          -0.00     PERCENT DISCREPANCY =          -0.00




         TIME SUMMARY AT END OF TIME STEP    5 IN STRESS PERIOD   17
                    SECONDS     MINUTES      HOURS       DAYS        YEARS
                    -----------------------------------------------------------
   TIME STEP LENGTH 3.25762E+05  5429.4      90.489      3.7704     1.03228E-02
 STRESS PERIOD TIME 1.16907E+06  19485.      324.74      13.531     3.70457E-02
         TOTAL TIME 4.05675E+07 6.76125E+05  11269.      469.53      1.2855    


end timestep


start timestep kper="17" kstp="6" mode="normal"

 UBDSV1 SAVING     FLOW-JA-FACE ON UNIT   1015 AT TIME STEP      6, STRESS PERIOD     17
 UBDSV06 SAVING              WEL IN MODEL MUMODEL          PACKAGE MUMODEL         CONNECTED TO MODEL MUMODEL          PACKAGE WEL-1            ON UNIT   1015 AT TIME STEP      6, STRESS PERIOD     17
 UBDSV06 SAVING             RCHA IN MODEL MUMODEL          PACKAGE MUMODEL         CONNECTED TO MODEL MUMODEL          PACKAGE RCH-1            ON UNIT   1015 AT TIME STEP      6, STRESS PERIOD     17

 WEL PACKAGE (WEL-1) FLOW RATES   PERIOD     17   STEP        6
 -----------------------------------------------
   NUMBER   CELLID                    RATE      
 -----------------------------------------------
     1      (1,5,5)              -20000.000     
     2      (1,11,5)              0.0000000     
     3      (1,5,5)               0.0000000     
 -----------------------------------------------




 CHD PACKAGE (CHD-FROM-IBOUND) FLOW RATES   PERIOD     17   STEP        6
 -----------------------------------------------
   NUMBER   CELLID                    RATE      
 -----------------------------------------------
     1      (1,1,1)              -2696.8396     
     2      (1,1,2)              -2696.8394     
     3      (1,1,3)              -2696.8242     
     4      (1,1,4)              -2696.6714     
     5      (1,1,5)              -2695.8941     
     6      (1,1,6)              -2696.6692     
     7      (1,1,7)              -2696.8200     
     8      (1,1,8)              -2696.8338     
     9      (1,1,9)              -2696.8335     
     10     (1,21,1)             -2696.8348     
     11     (1,21,2)             -2696.8364     
     12     (1,21,3)             -2696.8381     
     13     (1,21,4)             -2696.8395     
     14     (1,21,5)             -2696.8408     
     15     (1,21,6)             -2696.8419     
     16     (1,21,7)             -2696.8422     
     17     (1,21,8)             -2696.8411     
     18     (1,21,9)             -2696.8392     
 -----------------------------------------------




 HEAD WILL BE SAVED ON UNIT 1016 AT END OF TIME STEP    6, STRESS PERIOD   17


  VOLUME BUDGET FOR ENTIRE MODEL AT END OF TIME STEP    6, STRESS PERIOD  17
  ---------------------------------------------------------------------------------------------------

     CUMULATIVE VOLUME      L**3       RATES FOR THIS TIME STEP      L**3/T          PACKAGE NAME    
     ------------------                 ------------------------                     ----------------

           IN:                                      IN:
           ---                                      ---
              STO-SS =     7725146.4717                STO-SS =       10564.4403     STORAGE                          
              STO-SY =      290490.5625                STO-SY =         415.5739     STORAGE                          
                 WEL =           0.0000                   WEL =           0.0000     WEL-1                            
                RCHA =    59150285.4778                  RCHA =      256500.0000     RCH-1                            
                 CHD =           0.0000                   CHD =           0.0000     CHD-FROM-IBOUND                  

            TOTAL IN =    67165922.5120              TOTAL IN =      267480.0142

          OUT:                                     OUT:
          ----                                     ----
              STO-SS =    41797853.4103                STO-SS =      191958.2505     STORAGE                          
              STO-SY =     1531985.1351                STO-SY =        6979.9844     STORAGE                          
                 WEL =     2161108.0295                   WEL =       20000.0000     WEL-1                            
                RCHA =           0.0000                  RCHA =           0.0000     RCH-1                            
                 CHD =    21674982.2060                   CHD =       48541.7793     CHD-FROM-IBOUND                  

           TOTAL OUT =    67165928.7809             TOTAL OUT =      267480.0142

            IN - OUT =          -6.2689              IN - OUT =      -6.9027E-05

 PERCENT DISCREPANCY =          -0.00     PERCENT DISCREPANCY =          -0.00




         TIME SUMMARY AT END OF TIME STEP    6 IN STRESS PERIOD   17
                    SECONDS     MINUTES      HOURS       DAYS        YEARS
                    -----------------------------------------------------------
   TIME STEP LENGTH 3.90914E+05  6515.2      108.59      4.5245     1.23873E-02
 STRESS PERIOD TIME 1.55999E+06  26000.      433.33      18.055     4.94330E-02
         TOTAL TIME 4.09584E+07 6.82640E+05  11377.      474.06      1.2979    


end timestep


start timestep kper="17" kstp="7" mode="normal"

 UBDSV1 SAVING     FLOW-JA-FACE ON UNIT   1015 AT TIME STEP      7, STRESS PERIOD     17
 UBDSV06 SAVING              WEL IN MODEL MUMODEL          PACKAGE MUMODEL         CONNECTED TO MODEL MUMODEL          PACKAGE WEL-1            ON UNIT   1015 AT TIME STEP      7, STRESS PERIOD     17
 UBDSV06 SAVING             RCHA IN MODEL MUMODEL          PACKAGE MUMODEL         CONNECTED TO MODEL MUMODEL          PACKAGE RCH-1            ON UNIT   1015 AT TIME STEP      7, STRESS PERIOD     17

 WEL PACKAGE (WEL-1) FLOW RATES   PERIOD     17   STEP        7
 -----------------------------------------------
   NUMBER   CELLID                    RATE      
 -----------------------------------------------
     1      (1,5,5)              -20000.000     
     2      (1,11,5)              0.0000000     
     3      (1,5,5)               0.0000000     
 -----------------------------------------------




 CHD PACKAGE (CHD-FROM-IBOUND) FLOW RATES   PERIOD     17   STEP        7
 -----------------------------------------------
   NUMBER   CELLID                    RATE      
 -----------------------------------------------
     1      (1,1,1)              -2707.1459     
     2      (1,1,2)              -2707.1453     
     3      (1,1,3)              -2707.1261     
     4      (1,1,4)              -2706.9404     
     5      (1,1,5)              -2706.0373     
     6      (1,1,6)              -2706.9382     
     7      (1,1,7)              -2707.1218     
     8      (1,1,8)              -2707.1398     
     9      (1,1,9)              -2707.1399     
     10     (1,21,1)             -2707.1413     
     11     (1,21,2)             -2707.1428     
     12     (1,21,3)             -2707.1445     
     13     (1,21,4)             -2707.1459     
     14     (1,21,5)             -2707.1472     
     15     (1,21,6)             -2707.1483     
     16     (1,21,7)             -2707.1486     
     17     (1,21,8)             -2707.1474     
     18     (1,21,9)             -2707.1456     
 -----------------------------------------------




 HEAD WILL BE SAVED ON UNIT 1016 AT END OF TIME STEP    7, STRESS PERIOD   17


  VOLUME BUDGET FOR ENTIRE MODEL AT END OF TIME STEP    7, STRESS PERIOD  17
  ---------------------------------------------------------------------------------------------------

     CUMULATIVE VOLUME      L**3       RATES FOR THIS TIME STEP      L**3/T          PACKAGE NAME    
     ------------------                 ------------------------                     ----------------

           IN:                                      IN:
           ---                                      ---
              STO-SS =     7781470.4888                STO-SS =       10373.9642     STORAGE                          
              STO-SY =      292708.2250                STO-SY =         408.4572     STORAGE                          
                 WEL =           0.0000                   WEL =           0.0000     WEL-1                            
                RCHA =    60542917.0788                  RCHA =      256500.0000     RCH-1                            
                 CHD =           0.0000                   CHD =           0.0000     CHD-FROM-IBOUND                  

            TOTAL IN =    68617095.7926              TOTAL IN =      267282.4214

          OUT:                                     OUT:
          ----                                     ----
              STO-SS =    42838077.5339                STO-SS =      191592.2973     STORAGE                          
              STO-SY =     1569790.2137                STO-SY =        6963.0781     STORAGE                          
                 WEL =     2269695.2888                   WEL =       20000.0000     WEL-1                            
                RCHA =           0.0000                  RCHA =           0.0000     RCH-1                            
                 CHD =    21939539.0257                   CHD =       48727.0461     CHD-FROM-IBOUND                  

           TOTAL OUT =    68617102.0621             TOTAL OUT =      267282.4215

            IN - OUT =          -6.2695              IN - OUT =      -1.1120E-04

 PERCENT DISCREPANCY =          -0.00     PERCENT DISCREPANCY =          -0.00




         TIME SUMMARY AT END OF TIME STEP    7 IN STRESS PERIOD   17
                    SECONDS     MINUTES      HOURS       DAYS        YEARS
                    -----------------------------------------------------------
   TIME STEP LENGTH 4.69097E+05  7818.3      130.30      5.4294     1.48648E-02
 STRESS PERIOD TIME 2.02908E+06  33818.      563.63      23.485     6.42978E-02
         TOTAL TIME 4.14275E+07 6.90458E+05  11508.      479.48      1.3128    


end timestep


start timestep kper="17" kstp="8" mode="normal"

 UBDSV1 SAVING     FLOW-JA-FACE ON UNIT   1015 AT TIME STEP      8, STRESS PERIOD     17
 UBDSV06 SAVING              WEL IN MODEL MUMODEL          PACKAGE MUMODEL         CONNECTED TO MODEL MUMODEL          PACKAGE WEL-1            ON UNIT   1015 AT TIME STEP      8, STRESS PERIOD     17
 UBDSV06 SAVING             RCHA IN MODEL MUMODEL          PACKAGE MUMODEL         CONNECTED TO MODEL MUMODEL          PACKAGE RCH-1            ON UNIT   1015 AT TIME STEP      8, STRESS PERIOD     17

 WEL PACKAGE (WEL-1) FLOW RATES   PERIOD     17   STEP        8
 -----------------------------------------------
   NUMBER   CELLID                    RATE      
 -----------------------------------------------
     1      (1,5,5)              -20000.000     
     2      (1,11,5)              0.0000000     
     3      (1,5,5)               0.0000000     
 -----------------------------------------------




 CHD PACKAGE (CHD-FROM-IBOUND) FLOW RATES   PERIOD     17   STEP        8
 -----------------------------------------------
   NUMBER   CELLID                    RATE      
 -----------------------------------------------
     1      (1,1,1)              -2719.3927     
     2      (1,1,2)              -2719.3915     
     3      (1,1,3)              -2719.3661     
     4      (1,1,4)              -2719.1340     
     5      (1,1,5)              -2718.0633     
     6      (1,1,6)              -2719.1318     
     7      (1,1,7)              -2719.3619     
     8      (1,1,8)              -2719.3860     
     9      (1,1,9)              -2719.3867     
     10     (1,21,1)             -2719.3881     
     11     (1,21,2)             -2719.3896     
     12     (1,21,3)             -2719.3913     
     13     (1,21,4)             -2719.3927     
     14     (1,21,5)             -2719.3940     
     15     (1,21,6)             -2719.3950     
     16     (1,21,7)             -2719.3953     
     17     (1,21,8)             -2719.3942     
     18     (1,21,9)             -2719.3924     
 -----------------------------------------------




 HEAD WILL BE SAVED ON UNIT 1016 AT END OF TIME STEP    8, STRESS PERIOD   17


  VOLUME BUDGET FOR ENTIRE MODEL AT END OF TIME STEP    8, STRESS PERIOD  17
  ---------------------------------------------------------------------------------------------------

     CUMULATIVE VOLUME      L**3       RATES FOR THIS TIME STEP      L**3/T          PACKAGE NAME    
     ------------------                 ------------------------                     ----------------

           IN:                                      IN:
           ---                                      ---
              STO-SS =     7847566.9482                STO-SS =       10144.9071     STORAGE                          
              STO-SY =      295313.3402                STO-SY =         399.8497     STORAGE                          
                 WEL =           0.0000                   WEL =           0.0000     WEL-1                            
                RCHA =    62214075.0000                  RCHA =      256500.0000     RCH-1                            
                 CHD =           0.0000                   CHD =           0.0000     CHD-FROM-IBOUND                  

            TOTAL IN =    70356955.2884              TOTAL IN =      267044.7568

          OUT:                                     OUT:
          ----                                     ----
              STO-SS =    44083495.5664                STO-SS =      191154.7205     STORAGE                          
              STO-SY =     1615024.7784                STO-SY =        6942.8901     STORAGE                          
                 WEL =     2400000.0000                   WEL =       20000.0000     WEL-1                            
                RCHA =           0.0000                  RCHA =           0.0000     RCH-1                            
                 CHD =    22258441.2142                   CHD =       48947.1463     CHD-FROM-IBOUND                  

           TOTAL OUT =    70356961.5591             TOTAL OUT =      267044.7570

            IN - OUT =          -6.2707              IN - OUT =      -1.7825E-04

 PERCENT DISCREPANCY =          -0.00     PERCENT DISCREPANCY =          -0.00




         TIME SUMMARY AT END OF TIME STEP    8 IN STRESS PERIOD   17
                    SECONDS     MINUTES      HOURS       DAYS        YEARS
                    -----------------------------------------------------------
   TIME STEP LENGTH 5.62916E+05  9381.9      156.37      6.5152     1.78377E-02
 STRESS PERIOD TIME 2.59200E+06  43200.      720.00      30.000     8.21355E-02
         TOTAL TIME 4.19904E+07 6.99840E+05  11664.      486.00      1.3306    


end timestep


start timestep kper="18" kstp="1" mode="normal"


 OUTPUT CONTROL FOR STRESS PERIOD 18 IS REPEATED USING SETTINGS FROM A PREVIOUS STRESS PERIOD.


 STRESS PERIOD 18 IS TRANSIENT


 REUSING WELS FROM LAST STRESS PERIOD

 REUSING CHDS FROM LAST STRESS PERIOD
 UBDSV1 SAVING     FLOW-JA-FACE ON UNIT   1015 AT TIME STEP      1, STRESS PERIOD     18
 UBDSV06 SAVING              WEL IN MODEL MUMODEL          PACKAGE MUMODEL         CONNECTED TO MODEL MUMODEL          PACKAGE WEL-1            ON UNIT   1015 AT TIME STEP      1, STRESS PERIOD     18
 UBDSV06 SAVING             RCHA IN MODEL MUMODEL          PACKAGE MUMODEL         CONNECTED TO MODEL MUMODEL          PACKAGE RCH-1            ON UNIT   1015 AT TIME STEP      1, STRESS PERIOD     18

 WEL PACKAGE (WEL-1) FLOW RATES   PERIOD     18   STEP        1
 -----------------------------------------------
   NUMBER   CELLID                    RATE      
 -----------------------------------------------
     1      (1,5,5)              -20000.000     
     2      (1,11,5)              0.0000000     
     3      (1,5,5)               0.0000000     
 -----------------------------------------------




 CHD PACKAGE (CHD-FROM-IBOUND) FLOW RATES   PERIOD     18   STEP        1
 -----------------------------------------------
   NUMBER   CELLID                    RATE      
 -----------------------------------------------
     1      (1,1,1)              -2719.3650     
     2      (1,1,2)              -2719.3637     
     3      (1,1,3)              -2719.3364     
     4      (1,1,4)              -2719.0903     
     5      (1,1,5)              -2717.9697     
     6      (1,1,6)              -2719.0881     
     7      (1,1,7)              -2719.3322     
     8      (1,1,8)              -2719.3582     
     9      (1,1,9)              -2719.3591     
     10     (1,21,1)             -2719.3605     
     11     (1,21,2)             -2719.3619     
     12     (1,21,3)             -2719.3636     
     13     (1,21,4)             -2719.3651     
     14     (1,21,5)             -2719.3663     
     15     (1,21,6)             -2719.3674     
     16     (1,21,7)             -2719.3677     
     17     (1,21,8)             -2719.3665     
     18     (1,21,9)             -2719.3647     
 -----------------------------------------------




 HEAD WILL BE SAVED ON UNIT 1016 AT END OF TIME STEP    1, STRESS PERIOD   18


  VOLUME BUDGET FOR ENTIRE MODEL AT END OF TIME STEP    1, STRESS PERIOD  18
  ---------------------------------------------------------------------------------------------------

     CUMULATIVE VOLUME      L**3       RATES FOR THIS TIME STEP      L**3/T          PACKAGE NAME    
     ------------------                 ------------------------                     ----------------

           IN:                                      IN:
           ---                                      ---
              STO-SS =     7877459.3594                STO-SS =       15909.5944     STORAGE                          
              STO-SY =      296476.1677                STO-SY =         618.8900     STORAGE                          
                 WEL =           0.0000                   WEL =           0.0000     WEL-1                            
                RCHA =    62374720.2741                  RCHA =       85500.0000     RCH-1                            
                 CHD =           0.0000                   CHD =           0.0000     CHD-FROM-IBOUND                  

            TOTAL IN =    70548655.8011              TOTAL IN =      102028.4844

          OUT:                                     OUT:
          ----                                     ----
              STO-SS =    44143534.6604                STO-SS =       31954.5194     STORAGE                          
              STO-SY =     1617143.0769                STO-SY =        1127.4189     STORAGE                          
                 WEL =     2437577.8419                   WEL =       20000.0000     WEL-1                            
                RCHA =           0.0000                  RCHA =           0.0000     RCH-1                            
                 CHD =    22350406.4929                   CHD =       48946.5462     CHD-FROM-IBOUND                  

           TOTAL OUT =    70548662.0721             TOTAL OUT =      102028.4845

            IN - OUT =          -6.2709              IN - OUT =      -1.3457E-04

 PERCENT DISCREPANCY =          -0.00     PERCENT DISCREPANCY =          -0.00




         TIME SUMMARY AT END OF TIME STEP    1 IN STRESS PERIOD   18
                    SECONDS     MINUTES      HOURS       DAYS        YEARS
                    -----------------------------------------------------------
   TIME STEP LENGTH 1.62336E+05  2705.6      45.093      1.8789     5.14413E-03
 STRESS PERIOD TIME 1.62336E+05  2705.6      45.093      1.8789     5.14413E-03
         TOTAL TIME 4.21527E+07 7.02546E+05  11709.      487.88      1.3357    


end timestep


start timestep kper="18" kstp="2" mode="normal"

 UBDSV1 SAVING     FLOW-JA-FACE ON UNIT   1015 AT TIME STEP      2, STRESS PERIOD     18
 UBDSV06 SAVING              WEL IN MODEL MUMODEL          PACKAGE MUMODEL         CONNECTED TO MODEL MUMODEL          PACKAGE WEL-1            ON UNIT   1015 AT TIME STEP      2, STRESS PERIOD     18
 UBDSV06 SAVING             RCHA IN MODEL MUMODEL          PACKAGE MUMODEL         CONNECTED TO MODEL MUMODEL          PACKAGE RCH-1            ON UNIT   1015 AT TIME STEP      2, STRESS PERIOD     18

 WEL PACKAGE (WEL-1) FLOW RATES   PERIOD     18   STEP        2
 -----------------------------------------------
   NUMBER   CELLID                    RATE      
 -----------------------------------------------
     1      (1,5,5)              -20000.000     
     2      (1,11,5)              0.0000000     
     3      (1,5,5)               0.0000000     
 -----------------------------------------------




 CHD PACKAGE (CHD-FROM-IBOUND) FLOW RATES   PERIOD     18   STEP        2
 -----------------------------------------------
   NUMBER   CELLID                    RATE      
 -----------------------------------------------
     1      (1,1,1)              -2719.3354     
     2      (1,1,2)              -2719.3338     
     3      (1,1,3)              -2719.3041     
     4      (1,1,4)              -2719.0403     
     5      (1,1,5)              -2717.8580     
     6      (1,1,6)              -2719.0381     
     7      (1,1,7)              -2719.2999     
     8      (1,1,8)              -2719.3283     
     9      (1,1,9)              -2719.3294     
     10     (1,21,1)             -2719.3309     
     11     (1,21,2)             -2719.3323     
     12     (1,21,3)             -2719.3340     
     13     (1,21,4)             -2719.3354     
     14     (1,21,5)             -2719.3367     
     15     (1,21,6)             -2719.3378     
     16     (1,21,7)             -2719.3380     
     17     (1,21,8)             -2719.3369     
     18     (1,21,9)             -2719.3351     
 -----------------------------------------------




 HEAD WILL BE SAVED ON UNIT 1016 AT END OF TIME STEP    2, STRESS PERIOD   18


  VOLUME BUDGET FOR ENTIRE MODEL AT END OF TIME STEP    2, STRESS PERIOD  18
  ---------------------------------------------------------------------------------------------------

     CUMULATIVE VOLUME      L**3       RATES FOR THIS TIME STEP      L**3/T          PACKAGE NAME    
     ------------------                 ------------------------                     ----------------

           IN:                                      IN:
           ---                                      ---
              STO-SS =     7913216.6314                STO-SS =       15859.2006     STORAGE                          
              STO-SY =      297867.2895                STO-SY =         616.9956     STORAGE                          
                 WEL =           0.0000                   WEL =           0.0000     WEL-1                            
                RCHA =    62567494.6030                  RCHA =       85500.0000     RCH-1                            
                 CHD =           0.0000                   CHD =           0.0000     CHD-FROM-IBOUND                  

            TOTAL IN =    70778578.5239              TOTAL IN =      101976.1963

          OUT:                                     OUT:
          ----                                     ----
              STO-SS =    44215469.4529                STO-SS =       31904.7915     STORAGE                          
              STO-SY =     1619680.7545                STO-SY =        1125.5204     STORAGE                          
                 WEL =     2482671.2522                   WEL =       20000.0000     WEL-1                            
                RCHA =           0.0000                  RCHA =           0.0000     RCH-1                            
                 CHD =    22460763.3357                   CHD =       48945.8846     CHD-FROM-IBOUND                  

           TOTAL OUT =    70778584.7954             TOTAL OUT =      101976.1965

            IN - OUT =          -6.2715              IN - OUT =      -2.3258E-04

 PERCENT DISCREPANCY =          -0.00     PERCENT DISCREPANCY =          -0.00




         TIME SUMMARY AT END OF TIME STEP    2 IN STRESS PERIOD   18
                    SECONDS     MINUTES      HOURS       DAYS        YEARS
                    -----------------------------------------------------------
   TIME STEP LENGTH 1.94804E+05  3246.7      54.112      2.2547     6.17295E-03
 STRESS PERIOD TIME 3.57140E+05  5952.3      99.206      4.1336     1.13171E-02
         TOTAL TIME 4.23475E+07 7.05792E+05  11763.      490.13      1.3419    


end timestep


start timestep kper="18" kstp="3" mode="normal"

 UBDSV1 SAVING     FLOW-JA-FACE ON UNIT   1015 AT TIME STEP      3, STRESS PERIOD     18
 UBDSV06 SAVING              WEL IN MODEL MUMODEL          PACKAGE MUMODEL         CONNECTED TO MODEL MUMODEL          PACKAGE WEL-1            ON UNIT   1015 AT TIME STEP      3, STRESS PERIOD     18
 UBDSV06 SAVING             RCHA IN MODEL MUMODEL          PACKAGE MUMODEL         CONNECTED TO MODEL MUMODEL          PACKAGE RCH-1            ON UNIT   1015 AT TIME STEP      3, STRESS PERIOD     18

 WEL PACKAGE (WEL-1) FLOW RATES   PERIOD     18   STEP        3
 -----------------------------------------------
   NUMBER   CELLID                    RATE      
 -----------------------------------------------
     1      (1,5,5)              -20000.000     
     2      (1,11,5)              0.0000000     
     3      (1,5,5)               0.0000000     
 -----------------------------------------------




 CHD PACKAGE (CHD-FROM-IBOUND) FLOW RATES   PERIOD     18   STEP        3
 -----------------------------------------------
   NUMBER   CELLID                    RATE      
 -----------------------------------------------
     1      (1,1,1)              -2719.3051     
     2      (1,1,2)              -2719.3032     
     3      (1,1,3)              -2719.2704     
     4      (1,1,4)              -2718.9841     
     5      (1,1,5)              -2717.7248     
     6      (1,1,6)              -2718.9819     
     7      (1,1,7)              -2719.2663     
     8      (1,1,8)              -2719.2978     
     9      (1,1,9)              -2719.2992     
     10     (1,21,1)             -2719.3006     
     11     (1,21,2)             -2719.3021     
     12     (1,21,3)             -2719.3038     
     13     (1,21,4)             -2719.3052     
     14     (1,21,5)             -2719.3065     
     15     (1,21,6)             -2719.3075     
     16     (1,21,7)             -2719.3078     
     17     (1,21,8)             -2719.3066     
     18     (1,21,9)             -2719.3049     
 -----------------------------------------------




 HEAD WILL BE SAVED ON UNIT 1016 AT END OF TIME STEP    3, STRESS PERIOD   18


  VOLUME BUDGET FOR ENTIRE MODEL AT END OF TIME STEP    3, STRESS PERIOD  18
  ---------------------------------------------------------------------------------------------------

     CUMULATIVE VOLUME      L**3       RATES FOR THIS TIME STEP      L**3/T          PACKAGE NAME    
     ------------------                 ------------------------                     ----------------

           IN:                                      IN:
           ---                                      ---
              STO-SS =     7955961.2928                STO-SS =       15798.5617     STORAGE                          
              STO-SY =      299530.4534                STO-SY =         614.7106     STORAGE                          
                 WEL =           0.0000                   WEL =           0.0000     WEL-1                            
                RCHA =    62798823.7977                  RCHA =       85500.0000     RCH-1                            
                 CHD =           0.0000                   CHD =           0.0000     CHD-FROM-IBOUND                  

            TOTAL IN =    71054315.5439              TOTAL IN =      101913.2723

          OUT:                                     OUT:
          ----                                     ----
              STO-SS =    44301629.0572                STO-SS =       31844.8615     STORAGE                          
              STO-SY =     1622719.7801                STO-SY =        1123.2334     STORAGE                          
                 WEL =     2536783.3445                   WEL =       20000.0000     WEL-1                            
                RCHA =           0.0000                  RCHA =           0.0000     RCH-1                            
                 CHD =    22593189.6346                   CHD =       48945.1777     CHD-FROM-IBOUND                  

           TOTAL OUT =    71054321.8164             TOTAL OUT =      101913.2727

            IN - OUT =          -6.2725              IN - OUT =      -3.8951E-04

 PERCENT DISCREPANCY =          -0.00     PERCENT DISCREPANCY =          -0.00




         TIME SUMMARY AT END OF TIME STEP    3 IN STRESS PERIOD   18
                    SECONDS     MINUTES      HOURS       DAYS        YEARS
                    -----------------------------------------------------------
   TIME STEP LENGTH 2.33764E+05  3896.1      64.935      2.7056     7.40754E-03
 STRESS PERIOD TIME 5.90904E+05  9848.4      164.14      6.8392     1.87246E-02
         TOTAL TIME 4.25813E+07 7.09688E+05  11828.      492.84      1.3493    


end timestep


start timestep kper="18" kstp="4" mode="normal"

 UBDSV1 SAVING     FLOW-JA-FACE ON UNIT   1015 AT TIME STEP      4, STRESS PERIOD     18
 UBDSV06 SAVING              WEL IN MODEL MUMODEL          PACKAGE MUMODEL         CONNECTED TO MODEL MUMODEL          PACKAGE WEL-1            ON UNIT   1015 AT TIME STEP      4, STRESS PERIOD     18
 UBDSV06 SAVING             RCHA IN MODEL MUMODEL          PACKAGE MUMODEL         CONNECTED TO MODEL MUMODEL          PACKAGE RCH-1            ON UNIT   1015 AT TIME STEP      4, STRESS PERIOD     18

 WEL PACKAGE (WEL-1) FLOW RATES   PERIOD     18   STEP        4
 -----------------------------------------------
   NUMBER   CELLID                    RATE      
 -----------------------------------------------
     1      (1,5,5)              -20000.000     
     2      (1,11,5)              0.0000000     
     3      (1,5,5)               0.0000000     
 -----------------------------------------------




 CHD PACKAGE (CHD-FROM-IBOUND) FLOW RATES   PERIOD     18   STEP        4
 -----------------------------------------------
   NUMBER   CELLID                    RATE      
 -----------------------------------------------
     1      (1,1,1)              -2719.2763     
     2      (1,1,2)              -2719.2740     
     3      (1,1,3)              -2719.2370     
     4      (1,1,4)              -2718.9218     
     5      (1,1,5)              -2717.5656     
     6      (1,1,6)              -2718.9196     
     7      (1,1,7)              -2719.2329     
     8      (1,1,8)              -2719.2686     
     9      (1,1,9)              -2719.2704     
     10     (1,21,1)             -2719.2719     
     11     (1,21,2)             -2719.2733     
     12     (1,21,3)             -2719.2750     
     13     (1,21,4)             -2719.2764     
     14     (1,21,5)             -2719.2777     
     15     (1,21,6)             -2719.2787     
     16     (1,21,7)             -2719.2790     
     17     (1,21,8)             -2719.2778     
     18     (1,21,9)             -2719.2761     
 -----------------------------------------------




 HEAD WILL BE SAVED ON UNIT 1016 AT END OF TIME STEP    4, STRESS PERIOD   18


  VOLUME BUDGET FOR ENTIRE MODEL AT END OF TIME STEP    4, STRESS PERIOD  18
  ---------------------------------------------------------------------------------------------------

     CUMULATIVE VOLUME      L**3       RATES FOR THIS TIME STEP      L**3/T          PACKAGE NAME    
     ------------------                 ------------------------                     ----------------

           IN:                                      IN:
           ---                                      ---
              STO-SS =     8007040.0040                STO-SS =       15732.3773     STORAGE                          
              STO-SY =      301518.1093                STO-SY =         612.2032     STORAGE                          
                 WEL =           0.0000                   WEL =           0.0000     WEL-1                            
                RCHA =    63076418.8313                  RCHA =       85500.0000     RCH-1                            
                 CHD =           0.0000                   CHD =           0.0000     CHD-FROM-IBOUND                  

            TOTAL IN =    71384976.9446              TOTAL IN =      101844.5806

          OUT:                                     OUT:
          ----                                     ----
              STO-SS =    44404808.0519                STO-SS =       31779.4016     STORAGE                          
              STO-SY =     1626358.4752                STO-SY =        1120.7277     STORAGE                          
                 WEL =     2601717.8553                   WEL =       20000.0000     WEL-1                            
                RCHA =           0.0000                  RCHA =           0.0000     RCH-1                            
                 CHD =    22752098.8369                   CHD =       48944.4520     CHD-FROM-IBOUND                  

           TOTAL OUT =    71384983.2193             TOTAL OUT =      101844.5812

            IN - OUT =          -6.2746              IN - OUT =      -6.5081E-04

 PERCENT DISCREPANCY =          -0.00     PERCENT DISCREPANCY =          -0.00




         TIME SUMMARY AT END OF TIME STEP    4 IN STRESS PERIOD   18
                    SECONDS     MINUTES      HOURS       DAYS        YEARS
                    -----------------------------------------------------------
   TIME STEP LENGTH 2.80517E+05  4675.3      77.921      3.2467     8.88905E-03
 STRESS PERIOD TIME 8.71421E+05  14524.      242.06      10.086     2.76137E-02
         TOTAL TIME 4.28618E+07 7.14364E+05  11906.      496.09      1.3582    


end timestep


start timestep kper="18" kstp="5" mode="normal"

 UBDSV1 SAVING     FLOW-JA-FACE ON UNIT   1015 AT TIME STEP      5, STRESS PERIOD     18
 UBDSV06 SAVING              WEL IN MODEL MUMODEL          PACKAGE MUMODEL         CONNECTED TO MODEL MUMODEL          PACKAGE WEL-1            ON UNIT   1015 AT TIME STEP      5, STRESS PERIOD     18
 UBDSV06 SAVING             RCHA IN MODEL MUMODEL          PACKAGE MUMODEL         CONNECTED TO MODEL MUMODEL          PACKAGE RCH-1            ON UNIT   1015 AT TIME STEP      5, STRESS PERIOD     18

 WEL PACKAGE (WEL-1) FLOW RATES   PERIOD     18   STEP        5
 -----------------------------------------------
   NUMBER   CELLID                    RATE      
 -----------------------------------------------
     1      (1,5,5)              -20000.000     
     2      (1,11,5)              0.0000000     
     3      (1,5,5)               0.0000000     
 -----------------------------------------------




 CHD PACKAGE (CHD-FROM-IBOUND) FLOW RATES   PERIOD     18   STEP        5
 -----------------------------------------------
   NUMBER   CELLID                    RATE      
 -----------------------------------------------
     1      (1,1,1)              -2719.2522     
     2      (1,1,2)              -2719.2494     
     3      (1,1,3)              -2719.2069     
     4      (1,1,4)              -2718.8539     
     5      (1,1,5)              -2717.3755     
     6      (1,1,6)              -2718.8518     
     7      (1,1,7)              -2719.2028     
     8      (1,1,8)              -2719.2440     
     9      (1,1,9)              -2719.2464     
     10     (1,21,1)             -2719.2479     
     11     (1,21,2)             -2719.2493     
     12     (1,21,3)             -2719.2510     
     13     (1,21,4)             -2719.2524     
     14     (1,21,5)             -2719.2537     
     15     (1,21,6)             -2719.2547     
     16     (1,21,7)             -2719.2550     
     17     (1,21,8)             -2719.2538     
     18     (1,21,9)             -2719.2521     
 -----------------------------------------------




 HEAD WILL BE SAVED ON UNIT 1016 AT END OF TIME STEP    5, STRESS PERIOD   18


  VOLUME BUDGET FOR ENTIRE MODEL AT END OF TIME STEP    5, STRESS PERIOD  18
  ---------------------------------------------------------------------------------------------------

     CUMULATIVE VOLUME      L**3       RATES FOR THIS TIME STEP      L**3/T          PACKAGE NAME    
     ------------------                 ------------------------                     ----------------

           IN:                                      IN:
           ---                                      ---
              STO-SS =     8068079.8543                STO-SS =       15667.0286     STORAGE                          
              STO-SY =      303893.4992                STO-SY =         609.6886     STORAGE                          
                 WEL =           0.0000                   WEL =           0.0000     WEL-1                            
                RCHA =    63409532.8717                  RCHA =       85500.0000     RCH-1                            
                 CHD =           0.0000                   CHD =           0.0000     CHD-FROM-IBOUND                  

            TOTAL IN =    71781506.2252              TOTAL IN =      101776.7172

          OUT:                                     OUT:
          ----                                     ----
              STO-SS =    44528370.9366                STO-SS =       31714.7444     STORAGE                          
              STO-SY =     1630715.1391                STO-SY =        1118.2199     STORAGE                          
                 WEL =     2679639.2682                   WEL =       20000.0000     WEL-1                            
                RCHA =           0.0000                  RCHA =           0.0000     RCH-1                            
                 CHD =    22942787.1561                   CHD =       48943.7529     CHD-FROM-IBOUND                  

           TOTAL OUT =    71781512.5000             TOTAL OUT =      101776.7173

            IN - OUT =          -6.2748              IN - OUT =      -5.3071E-05

 PERCENT DISCREPANCY =          -0.00     PERCENT DISCREPANCY =          -0.00




         TIME SUMMARY AT END OF TIME STEP    5 IN STRESS PERIOD   18
                    SECONDS     MINUTES      HOURS       DAYS        YEARS
                    -----------------------------------------------------------
   TIME STEP LENGTH 3.36621E+05  5610.3      93.506      3.8961     1.06669E-02
 STRESS PERIOD TIME 1.20804E+06  20134.      335.57      13.982     3.82805E-02
         TOTAL TIME 4.31984E+07 7.19974E+05  12000.      499.98      1.3689    


end timestep


start timestep kper="18" kstp="6" mode="normal"

 UBDSV1 SAVING     FLOW-JA-FACE ON UNIT   1015 AT TIME STEP      6, STRESS PERIOD     18
 UBDSV06 SAVING              WEL IN MODEL MUMODEL          PACKAGE MUMODEL         CONNECTED TO MODEL MUMODEL          PACKAGE WEL-1            ON UNIT   1015 AT TIME STEP      6, STRESS PERIOD     18
 UBDSV06 SAVING             RCHA IN MODEL MUMODEL          PACKAGE MUMODEL         CONNECTED TO MODEL MUMODEL          PACKAGE RCH-1            ON UNIT   1015 AT TIME STEP      6, STRESS PERIOD     18

 WEL PACKAGE (WEL-1) FLOW RATES   PERIOD     18   STEP        6
 -----------------------------------------------
   NUMBER   CELLID                    RATE      
 -----------------------------------------------
     1      (1,5,5)              -20000.000     
     2      (1,11,5)              0.0000000     
     3      (1,5,5)               0.0000000     
 -----------------------------------------------




 CHD PACKAGE (CHD-FROM-IBOUND) FLOW RATES   PERIOD     18   STEP        6
 -----------------------------------------------
   NUMBER   CELLID                    RATE      
 -----------------------------------------------
     1      (1,1,1)              -2719.2383     
     2      (1,1,2)              -2719.2347     
     3      (1,1,3)              -2719.1847     
     4      (1,1,4)              -2718.7819     
     5      (1,1,5)              -2717.1476     
     6      (1,1,6)              -2718.7797     
     7      (1,1,7)              -2719.1806     
     8      (1,1,8)              -2719.2293     
     9      (1,1,9)              -2719.2324     
     10     (1,21,1)             -2719.2340     
     11     (1,21,2)             -2719.2355     
     12     (1,21,3)             -2719.2371     
     13     (1,21,4)             -2719.2385     
     14     (1,21,5)             -2719.2398     
     15     (1,21,6)             -2719.2408     
     16     (1,21,7)             -2719.2410     
     17     (1,21,8)             -2719.2399     
     18     (1,21,9)             -2719.2382     
 -----------------------------------------------




 HEAD WILL BE SAVED ON UNIT 1016 AT END OF TIME STEP    6, STRESS PERIOD   18


  VOLUME BUDGET FOR ENTIRE MODEL AT END OF TIME STEP    6, STRESS PERIOD  18
  ---------------------------------------------------------------------------------------------------

     CUMULATIVE VOLUME      L**3       RATES FOR THIS TIME STEP      L**3/T          PACKAGE NAME    
     ------------------                 ------------------------                     ----------------

           IN:                                      IN:
           ---                                      ---
              STO-SS =     8140969.4263                STO-SS =       15590.4026     STORAGE                          
              STO-SY =      306730.0811                STO-SY =         606.7185     STORAGE                          
                 WEL =           0.0000                   WEL =           0.0000     WEL-1                            
                RCHA =    63809269.7201                  RCHA =       85500.0000     RCH-1                            
                 CHD =           0.0000                   CHD =           0.0000     CHD-FROM-IBOUND                  

            TOTAL IN =    72256969.2275              TOTAL IN =      101697.1211

          OUT:                                     OUT:
          ----                                     ----
              STO-SS =    44676290.8846                STO-SS =       31638.7033     STORAGE                          
              STO-SY =     1635929.3163                STO-SY =        1115.2641     STORAGE                          
                 WEL =     2773144.9638                   WEL =       20000.0000     WEL-1                            
                RCHA =           0.0000                  RCHA =           0.0000     RCH-1                            
                 CHD =    23171610.3381                   CHD =       48943.1538     CHD-FROM-IBOUND                  

           TOTAL OUT =    72256975.5027             TOTAL OUT =      101697.1212

            IN - OUT =          -6.2752              IN - OUT =      -8.9279E-05

 PERCENT DISCREPANCY =          -0.00     PERCENT DISCREPANCY =          -0.00




         TIME SUMMARY AT END OF TIME STEP    6 IN STRESS PERIOD   18
                    SECONDS     MINUTES      HOURS       DAYS        YEARS
                    -----------------------------------------------------------
   TIME STEP LENGTH 4.03945E+05  6732.4      112.21      4.6753     1.28002E-02
 STRESS PERIOD TIME 1.61199E+06  26866.      447.77      18.657     5.10808E-02
         TOTAL TIME 4.36024E+07 7.26706E+05  12112.      504.66      1.3817    


end timestep


start timestep kper="18" kstp="7" mode="normal"

 UBDSV1 SAVING     FLOW-JA-FACE ON UNIT   1015 AT TIME STEP      7, STRESS PERIOD     18
 UBDSV06 SAVING              WEL IN MODEL MUMODEL          PACKAGE MUMODEL         CONNECTED TO MODEL MUMODEL          PACKAGE WEL-1            ON UNIT   1015 AT TIME STEP      7, STRESS PERIOD     18
 UBDSV06 SAVING             RCHA IN MODEL MUMODEL          PACKAGE MUMODEL         CONNECTED TO MODEL MUMODEL          PACKAGE RCH-1            ON UNIT   1015 AT TIME STEP      7, STRESS PERIOD     18

 WEL PACKAGE (WEL-1) FLOW RATES   PERIOD     18   STEP        7
 -----------------------------------------------
   NUMBER   CELLID                    RATE      
 -----------------------------------------------
     1      (1,5,5)              -20000.000     
     2      (1,11,5)              0.0000000     
     3      (1,5,5)               0.0000000     
 -----------------------------------------------




 CHD PACKAGE (CHD-FROM-IBOUND) FLOW RATES   PERIOD     18   STEP        7
 -----------------------------------------------
   NUMBER   CELLID                    RATE      
 -----------------------------------------------
     1      (1,1,1)              -2719.2423     
     2      (1,1,2)              -2719.2376     
     3      (1,1,3)              -2719.1771     
     4      (1,1,4)              -2718.7077     
     5      (1,1,5)              -2716.8734     
     6      (1,1,6)              -2718.7056     
     7      (1,1,7)              -2719.1731     
     8      (1,1,8)              -2719.2322     
     9      (1,1,9)              -2719.2365     
     10     (1,21,1)             -2719.2382     
     11     (1,21,2)             -2719.2396     
     12     (1,21,3)             -2719.2412     
     13     (1,21,4)             -2719.2426     
     14     (1,21,5)             -2719.2438     
     15     (1,21,6)             -2719.2449     
     16     (1,21,7)             -2719.2451     
     17     (1,21,8)             -2719.2440     
     18     (1,21,9)             -2719.2423     
 -----------------------------------------------




 HEAD WILL BE SAVED ON UNIT 1016 AT END OF TIME STEP    7, STRESS PERIOD   18


  VOLUME BUDGET FOR ENTIRE MODEL AT END OF TIME STEP    7, STRESS PERIOD  18
  ---------------------------------------------------------------------------------------------------

     CUMULATIVE VOLUME      L**3       RATES FOR THIS TIME STEP      L**3/T          PACKAGE NAME    
     ------------------                 ------------------------                     ----------------

           IN:                                      IN:
           ---                                      ---
              STO-SS =     8227940.7641                STO-SS =       15501.9680     STORAGE                          
              STO-SY =      310114.8133                STO-SY =         603.3023     STORAGE                          
                 WEL =           0.0000                   WEL =           0.0000     WEL-1                            
                RCHA =    64288953.9383                  RCHA =       85500.0000     RCH-1                            
                 CHD =           0.0000                   CHD =           0.0000     CHD-FROM-IBOUND                  

            TOTAL IN =    72827009.5156              TOTAL IN =      101605.2703

          OUT:                                     OUT:
          ----                                     ----
              STO-SS =    44853300.7102                STO-SS =       31550.6317     STORAGE                          
              STO-SY =     1642167.2965                STO-SY =        1111.8717     STORAGE                          
                 WEL =     2885351.7984                   WEL =       20000.0000     WEL-1                            
                RCHA =           0.0000                  RCHA =           0.0000     RCH-1                            
                 CHD =    23446195.9865                   CHD =       48942.7670     CHD-FROM-IBOUND                  

           TOTAL OUT =    72827015.7916             TOTAL OUT =      101605.2704

            IN - OUT =          -6.2761              IN - OUT =      -1.4740E-04

 PERCENT DISCREPANCY =          -0.00     PERCENT DISCREPANCY =          -0.00




         TIME SUMMARY AT END OF TIME STEP    7 IN STRESS PERIOD   18
                    SECONDS     MINUTES      HOURS       DAYS        YEARS
                    -----------------------------------------------------------
   TIME STEP LENGTH 4.84734E+05  8078.9      134.65      5.6103     1.53603E-02
 STRESS PERIOD TIME 2.09672E+06  34945.      582.42      24.268     6.64410E-02
         TOTAL TIME 4.40871E+07 7.34785E+05  12246.      510.27      1.3970    


end timestep


start timestep kper="18" kstp="8" mode="normal"

 UBDSV1 SAVING     FLOW-JA-FACE ON UNIT   1015 AT TIME STEP      8, STRESS PERIOD     18
 UBDSV06 SAVING              WEL IN MODEL MUMODEL          PACKAGE MUMODEL         CONNECTED TO MODEL MUMODEL          PACKAGE WEL-1            ON UNIT   1015 AT TIME STEP      8, STRESS PERIOD     18
 UBDSV06 SAVING             RCHA IN MODEL MUMODEL          PACKAGE MUMODEL         CONNECTED TO MODEL MUMODEL          PACKAGE RCH-1            ON UNIT   1015 AT TIME STEP      8, STRESS PERIOD     18

 WEL PACKAGE (WEL-1) FLOW RATES   PERIOD     18   STEP        8
 -----------------------------------------------
   NUMBER   CELLID                    RATE      
 -----------------------------------------------
     1      (1,5,5)              -20000.000     
     2      (1,11,5)              0.0000000     
     3      (1,5,5)               0.0000000     
 -----------------------------------------------




 CHD PACKAGE (CHD-FROM-IBOUND) FLOW RATES   PERIOD     18   STEP        8
 -----------------------------------------------
   NUMBER   CELLID                    RATE      
 -----------------------------------------------
     1      (1,1,1)              -2719.2760     
     2      (1,1,2)              -2719.2696     
     3      (1,1,3)              -2719.1944     
     4      (1,1,4)              -2718.6345     
     5      (1,1,5)              -2716.5413     
     6      (1,1,6)              -2718.6324     
     7      (1,1,7)              -2719.1904     
     8      (1,1,8)              -2719.2643     
     9      (1,1,9)              -2719.2702     
     10     (1,21,1)             -2719.2721     
     11     (1,21,2)             -2719.2735     
     12     (1,21,3)             -2719.2751     
     13     (1,21,4)             -2719.2765     
     14     (1,21,5)             -2719.2777     
     15     (1,21,6)             -2719.2787     
     16     (1,21,7)             -2719.2789     
     17     (1,21,8)             -2719.2778     
     18     (1,21,9)             -2719.2761     
 -----------------------------------------------




 HEAD WILL BE SAVED ON UNIT 1016 AT END OF TIME STEP    8, STRESS PERIOD   18


  VOLUME BUDGET FOR ENTIRE MODEL AT END OF TIME STEP    8, STRESS PERIOD  18
  ---------------------------------------------------------------------------------------------------

     CUMULATIVE VOLUME      L**3       RATES FOR THIS TIME STEP      L**3/T          PACKAGE NAME    
     ------------------                 ------------------------                     ----------------

           IN:                                      IN:
           ---                                      ---
              STO-SS =     8331752.4828                STO-SS =       15419.6963     STORAGE                          
              STO-SY =      314155.9497                STO-SY =         600.2511     STORAGE                          
                 WEL =           0.0000                   WEL =           0.0000     WEL-1                            
                RCHA =    64864575.0000                  RCHA =       85500.0000     RCH-1                            
                 CHD =           0.0000                   CHD =           0.0000     CHD-FROM-IBOUND                  

            TOTAL IN =    73510483.4325              TOTAL IN =      101519.9474

          OUT:                                     OUT:
          ----                                     ----
              STO-SS =    45065158.4270                STO-SS =       31468.3322     STORAGE                          
              STO-SY =     1649632.5699                STO-SY =        1108.8560     STORAGE                          
                 WEL =     3020000.0000                   WEL =       20000.0000     WEL-1                            
                RCHA =           0.0000                  RCHA =           0.0000     RCH-1                            
                 CHD =    23775698.7132                   CHD =       48942.7594     CHD-FROM-IBOUND                  

           TOTAL OUT =    73510489.7102             TOTAL OUT =      101519.9476

            IN - OUT =          -6.2777              IN - OUT =      -2.3849E-04

 PERCENT DISCREPANCY =          -0.00     PERCENT DISCREPANCY =          -0.00




         TIME SUMMARY AT END OF TIME STEP    8 IN STRESS PERIOD   18
                    SECONDS     MINUTES      HOURS       DAYS        YEARS
                    -----------------------------------------------------------
   TIME STEP LENGTH 5.81680E+05  9694.7      161.58      6.7324     1.84323E-02
 STRESS PERIOD TIME 2.67840E+06  44640.      744.00      31.000     8.48734E-02
         TOTAL TIME 4.46688E+07 7.44480E+05  12408.      517.00      1.4155    


end timestep


start timestep kper="19" kstp="1" mode="normal"


 OUTPUT CONTROL FOR STRESS PERIOD 19 IS REPEATED USING SETTINGS FROM A PREVIOUS STRESS PERIOD.


 STRESS PERIOD 19 IS TRANSIENT


 REUSING WELS FROM LAST STRESS PERIOD

 REUSING CHDS FROM LAST STRESS PERIOD
 UBDSV1 SAVING     FLOW-JA-FACE ON UNIT   1015 AT TIME STEP      1, STRESS PERIOD     19
 UBDSV06 SAVING              WEL IN MODEL MUMODEL          PACKAGE MUMODEL         CONNECTED TO MODEL MUMODEL          PACKAGE WEL-1            ON UNIT   1015 AT TIME STEP      1, STRESS PERIOD     19
 UBDSV06 SAVING             RCHA IN MODEL MUMODEL          PACKAGE MUMODEL         CONNECTED TO MODEL MUMODEL          PACKAGE RCH-1            ON UNIT   1015 AT TIME STEP      1, STRESS PERIOD     19

 WEL PACKAGE (WEL-1) FLOW RATES   PERIOD     19   STEP        1
 -----------------------------------------------
   NUMBER   CELLID                    RATE      
 -----------------------------------------------
     1      (1,5,5)              -20000.000     
     2      (1,11,5)              0.0000000     
     3      (1,5,5)               0.0000000     
 -----------------------------------------------




 CHD PACKAGE (CHD-FROM-IBOUND) FLOW RATES   PERIOD     19   STEP        1
 -----------------------------------------------
   NUMBER   CELLID                    RATE      
 -----------------------------------------------
     1      (1,1,1)              -2718.4283     
     2      (1,1,2)              -2718.4216     
     3      (1,1,3)              -2718.3422     
     4      (1,1,4)              -2717.7570     
     5      (1,1,5)              -2715.5924     
     6      (1,1,6)              -2717.7549     
     7      (1,1,7)              -2718.3382     
     8      (1,1,8)              -2718.4163     
     9      (1,1,9)              -2718.4226     
     10     (1,21,1)             -2718.4245     
     11     (1,21,2)             -2718.4259     
     12     (1,21,3)             -2718.4275     
     13     (1,21,4)             -2718.4289     
     14     (1,21,5)             -2718.4301     
     15     (1,21,6)             -2718.4311     
     16     (1,21,7)             -2718.4313     
     17     (1,21,8)             -2718.4302     
     18     (1,21,9)             -2718.4286     
 -----------------------------------------------




 HEAD WILL BE SAVED ON UNIT 1016 AT END OF TIME STEP    1, STRESS PERIOD   19


  VOLUME BUDGET FOR ENTIRE MODEL AT END OF TIME STEP    1, STRESS PERIOD  19
  ---------------------------------------------------------------------------------------------------

     CUMULATIVE VOLUME      L**3       RATES FOR THIS TIME STEP      L**3/T          PACKAGE NAME    
     ------------------                 ------------------------                     ----------------

           IN:                                      IN:
           ---                                      ---
              STO-SS =     8377533.3842                STO-SS =       25178.0992     STORAGE                          
              STO-SY =      315972.8366                STO-SY =         999.2324     STORAGE                          
                 WEL =           0.0000                   WEL =           0.0000     WEL-1                            
                RCHA =    64942306.5842                  RCHA =       42750.0000     RCH-1                            
                 CHD =           0.0000                   CHD =           0.0000     CHD-FROM-IBOUND                  

            TOTAL IN =    73635812.8051              TOTAL IN =       68927.3316

          OUT:                                     OUT:
          ----                                     ----
              STO-SS =    45065158.4270                STO-SS =           0.0000     STORAGE                          
              STO-SY =     1649632.5699                STO-SY =           0.0000     STORAGE                          
                 WEL =     3056365.6534                   WEL =       20000.0000     WEL-1                            
                RCHA =           0.0000                  RCHA =           0.0000     RCH-1                            
                 CHD =    23864662.4326                   CHD =       48927.3316     CHD-FROM-IBOUND                  

           TOTAL OUT =    73635819.0829             TOTAL OUT =       68927.3316

            IN - OUT =          -6.2778              IN - OUT =      -8.0045E-05

 PERCENT DISCREPANCY =          -0.00     PERCENT DISCREPANCY =          -0.00




         TIME SUMMARY AT END OF TIME STEP    1 IN STRESS PERIOD   19
                    SECONDS     MINUTES      HOURS       DAYS        YEARS
                    -----------------------------------------------------------
   TIME STEP LENGTH 1.57100E+05  2618.3      43.639      1.8183     4.97819E-03
 STRESS PERIOD TIME 1.57100E+05  2618.3      43.639      1.8183     4.97819E-03
         TOTAL TIME 4.48259E+07 7.47098E+05  12452.      518.82      1.4204    


end timestep


start timestep kper="19" kstp="2" mode="normal"

 UBDSV1 SAVING     FLOW-JA-FACE ON UNIT   1015 AT TIME STEP      2, STRESS PERIOD     19
 UBDSV06 SAVING              WEL IN MODEL MUMODEL          PACKAGE MUMODEL         CONNECTED TO MODEL MUMODEL          PACKAGE WEL-1            ON UNIT   1015 AT TIME STEP      2, STRESS PERIOD     19
 UBDSV06 SAVING             RCHA IN MODEL MUMODEL          PACKAGE MUMODEL         CONNECTED TO MODEL MUMODEL          PACKAGE RCH-1            ON UNIT   1015 AT TIME STEP      2, STRESS PERIOD     19

 WEL PACKAGE (WEL-1) FLOW RATES   PERIOD     19   STEP        2
 -----------------------------------------------
   NUMBER   CELLID                    RATE      
 -----------------------------------------------
     1      (1,5,5)              -20000.000     
     2      (1,11,5)              0.0000000     
     3      (1,5,5)               0.0000000     
 -----------------------------------------------




 CHD PACKAGE (CHD-FROM-IBOUND) FLOW RATES   PERIOD     19   STEP        2
 -----------------------------------------------
   NUMBER   CELLID                    RATE      
 -----------------------------------------------
     1      (1,1,1)              -2717.4183     
     2      (1,1,2)              -2717.4109     
     3      (1,1,3)              -2717.3263     
     4      (1,1,4)              -2716.7097     
     5      (1,1,5)              -2714.4576     
     6      (1,1,6)              -2716.7076     
     7      (1,1,7)              -2717.3223     
     8      (1,1,8)              -2717.4057     
     9      (1,1,9)              -2717.4126     
     10     (1,21,1)             -2717.4146     
     11     (1,21,2)             -2717.4159     
     12     (1,21,3)             -2717.4176     
     13     (1,21,4)             -2717.4189     
     14     (1,21,5)             -2717.4201     
     15     (1,21,6)             -2717.4211     
     16     (1,21,7)             -2717.4213     
     17     (1,21,8)             -2717.4202     
     18     (1,21,9)             -2717.4186     
 -----------------------------------------------




 HEAD WILL BE SAVED ON UNIT 1016 AT END OF TIME STEP    2, STRESS PERIOD   19


  VOLUME BUDGET FOR ENTIRE MODEL AT END OF TIME STEP    2, STRESS PERIOD  19
  ---------------------------------------------------------------------------------------------------

     CUMULATIVE VOLUME      L**3       RATES FOR THIS TIME STEP      L**3/T          PACKAGE NAME    
     ------------------                 ------------------------                     ----------------

           IN:                                      IN:
           ---                                      ---
              STO-SS =     8432432.0536                STO-SS =       25160.4945     STORAGE                          
              STO-SY =      318151.3825                STO-SY =         998.4448     STORAGE                          
                 WEL =           0.0000                   WEL =           0.0000     WEL-1                            
                RCHA =    65035584.4853                  RCHA =       42750.0000     RCH-1                            
                 CHD =           0.0000                   CHD =           0.0000     CHD-FROM-IBOUND                  

            TOTAL IN =    73786167.9214              TOTAL IN =       68908.9393

          OUT:                                     OUT:
          ----                                     ----
              STO-SS =    45065158.4270                STO-SS =           0.0000     STORAGE                          
              STO-SY =     1649632.5699                STO-SY =           0.0000     STORAGE                          
                 WEL =     3100004.4376                   WEL =       20000.0000     WEL-1                            
                RCHA =           0.0000                  RCHA =           0.0000     RCH-1                            
                 CHD =    23971378.7650                   CHD =       48908.9394     CHD-FROM-IBOUND                  

           TOTAL OUT =    73786174.1996             TOTAL OUT =       68908.9394

            IN - OUT =          -6.2781              IN - OUT =      -1.3957E-04

 PERCENT DISCREPANCY =          -0.00     PERCENT DISCREPANCY =          -0.00




         TIME SUMMARY AT END OF TIME STEP    2 IN STRESS PERIOD   19
                    SECONDS     MINUTES      HOURS       DAYS        YEARS
                    -----------------------------------------------------------
   TIME STEP LENGTH 1.88520E+05  3142.0      52.367      2.1819     5.97382E-03
 STRESS PERIOD TIME 3.45619E+05  5760.3      96.005      4.0002     1.09520E-02
         TOTAL TIME 4.50144E+07 7.50240E+05  12504.      521.00      1.4264    


end timestep


start timestep kper="19" kstp="3" mode="normal"

 UBDSV1 SAVING     FLOW-JA-FACE ON UNIT   1015 AT TIME STEP      3, STRESS PERIOD     19
 UBDSV06 SAVING              WEL IN MODEL MUMODEL          PACKAGE MUMODEL         CONNECTED TO MODEL MUMODEL          PACKAGE WEL-1            ON UNIT   1015 AT TIME STEP      3, STRESS PERIOD     19
 UBDSV06 SAVING             RCHA IN MODEL MUMODEL          PACKAGE MUMODEL         CONNECTED TO MODEL MUMODEL          PACKAGE RCH-1            ON UNIT   1015 AT TIME STEP      3, STRESS PERIOD     19

 WEL PACKAGE (WEL-1) FLOW RATES   PERIOD     19   STEP        3
 -----------------------------------------------
   NUMBER   CELLID                    RATE      
 -----------------------------------------------
     1      (1,5,5)              -20000.000     
     2      (1,11,5)              0.0000000     
     3      (1,5,5)               0.0000000     
 -----------------------------------------------




 CHD PACKAGE (CHD-FROM-IBOUND) FLOW RATES   PERIOD     19   STEP        3
 -----------------------------------------------
   NUMBER   CELLID                    RATE      
 -----------------------------------------------
     1      (1,1,1)              -2716.2165     
     2      (1,1,2)              -2716.2083     
     3      (1,1,3)              -2716.1170     
     4      (1,1,4)              -2715.4611     
     5      (1,1,5)              -2713.1010     
     6      (1,1,6)              -2715.4590     
     7      (1,1,7)              -2716.1130     
     8      (1,1,8)              -2716.2031     
     9      (1,1,9)              -2716.2108     
     10     (1,21,1)             -2716.2128     
     11     (1,21,2)             -2716.2142     
     12     (1,21,3)             -2716.2158     
     13     (1,21,4)             -2716.2172     
     14     (1,21,5)             -2716.2184     
     15     (1,21,6)             -2716.2194     
     16     (1,21,7)             -2716.2196     
     17     (1,21,8)             -2716.2185     
     18     (1,21,9)             -2716.2168     
 -----------------------------------------------




 HEAD WILL BE SAVED ON UNIT 1016 AT END OF TIME STEP    3, STRESS PERIOD   19


  VOLUME BUDGET FOR ENTIRE MODEL AT END OF TIME STEP    3, STRESS PERIOD  19
  ---------------------------------------------------------------------------------------------------

     CUMULATIVE VOLUME      L**3       RATES FOR THIS TIME STEP      L**3/T          PACKAGE NAME    
     ------------------                 ------------------------                     ----------------

           IN:                                      IN:
           ---                                      ---
              STO-SS =     8498255.5849                STO-SS =       25139.5376     STORAGE                          
              STO-SY =      320763.1753                STO-SY =         997.5044     STORAGE                          
                 WEL =           0.0000                   WEL =           0.0000     WEL-1                            
                RCHA =    65147517.9666                  RCHA =       42750.0000     RCH-1                            
                 CHD =           0.0000                   CHD =           0.0000     CHD-FROM-IBOUND                  

            TOTAL IN =    73966536.7268              TOTAL IN =       68887.0420

          OUT:                                     OUT:
          ----                                     ----
              STO-SS =    45065158.4270                STO-SS =           0.0000     STORAGE                          
              STO-SY =     1649632.5699                STO-SY =           0.0000     STORAGE                          
                 WEL =     3152370.9785                   WEL =       20000.0000     WEL-1                            
                RCHA =           0.0000                  RCHA =           0.0000     RCH-1                            
                 CHD =    24099381.0301                   CHD =       48887.0423     CHD-FROM-IBOUND                  

           TOTAL OUT =    73966543.0056             TOTAL OUT =       68887.0423

            IN - OUT =          -6.2788              IN - OUT =      -2.4074E-04

 PERCENT DISCREPANCY =          -0.00     PERCENT DISCREPANCY =          -0.00




         TIME SUMMARY AT END OF TIME STEP    3 IN STRESS PERIOD   19
                    SECONDS     MINUTES      HOURS       DAYS        YEARS
                    -----------------------------------------------------------
   TIME STEP LENGTH 2.26223E+05  3770.4      62.840      2.6183     7.16859E-03
 STRESS PERIOD TIME 5.71843E+05  9530.7      158.85      6.6185     1.81206E-02
         TOTAL TIME 4.52406E+07 7.54011E+05  12567.      523.62      1.4336    


end timestep


start timestep kper="19" kstp="4" mode="normal"

 UBDSV1 SAVING     FLOW-JA-FACE ON UNIT   1015 AT TIME STEP      4, STRESS PERIOD     19
 UBDSV06 SAVING              WEL IN MODEL MUMODEL          PACKAGE MUMODEL         CONNECTED TO MODEL MUMODEL          PACKAGE WEL-1            ON UNIT   1015 AT TIME STEP      4, STRESS PERIOD     19
 UBDSV06 SAVING             RCHA IN MODEL MUMODEL          PACKAGE MUMODEL         CONNECTED TO MODEL MUMODEL          PACKAGE RCH-1            ON UNIT   1015 AT TIME STEP      4, STRESS PERIOD     19

 WEL PACKAGE (WEL-1) FLOW RATES   PERIOD     19   STEP        4
 -----------------------------------------------
   NUMBER   CELLID                    RATE      
 -----------------------------------------------
     1      (1,5,5)              -20000.000     
     2      (1,11,5)              0.0000000     
     3      (1,5,5)               0.0000000     
 -----------------------------------------------




 CHD PACKAGE (CHD-FROM-IBOUND) FLOW RATES   PERIOD     19   STEP        4
 -----------------------------------------------
   NUMBER   CELLID                    RATE      
 -----------------------------------------------
     1      (1,1,1)              -2714.7888     
     2      (1,1,2)              -2714.7796     
     3      (1,1,3)              -2714.6797     
     4      (1,1,4)              -2713.9740     
     5      (1,1,5)              -2711.4804     
     6      (1,1,6)              -2713.9719     
     7      (1,1,7)              -2714.6757     
     8      (1,1,8)              -2714.7744     
     9      (1,1,9)              -2714.7831     
     10     (1,21,1)             -2714.7852     
     11     (1,21,2)             -2714.7866     
     12     (1,21,3)             -2714.7882     
     13     (1,21,4)             -2714.7896     
     14     (1,21,5)             -2714.7908     
     15     (1,21,6)             -2714.7917     
     16     (1,21,7)             -2714.7919     
     17     (1,21,8)             -2714.7908     
     18     (1,21,9)             -2714.7892     
 -----------------------------------------------




 HEAD WILL BE SAVED ON UNIT 1016 AT END OF TIME STEP    4, STRESS PERIOD   19


  VOLUME BUDGET FOR ENTIRE MODEL AT END OF TIME STEP    4, STRESS PERIOD  19
  ---------------------------------------------------------------------------------------------------

     CUMULATIVE VOLUME      L**3       RATES FOR THIS TIME STEP      L**3/T          PACKAGE NAME    
     ------------------                 ------------------------                     ----------------

           IN:                                      IN:
           ---                                      ---
              STO-SS =     8577165.5580                STO-SS =       25114.6284     STORAGE                          
              STO-SY =      323893.8024                STO-SY =         996.3828     STORAGE                          
                 WEL =           0.0000                   WEL =           0.0000     WEL-1                            
                RCHA =    65281838.1442                  RCHA =       42750.0000     RCH-1                            
                 CHD =           0.0000                   CHD =           0.0000     CHD-FROM-IBOUND                  

            TOTAL IN =    74182897.5046              TOTAL IN =       68861.0112

          OUT:                                     OUT:
          ----                                     ----
              STO-SS =    45065158.4270                STO-SS =           0.0000     STORAGE                          
              STO-SY =     1649632.5699                STO-SY =           0.0000     STORAGE                          
                 WEL =     3215210.8277                   WEL =       20000.0000     WEL-1                            
                RCHA =           0.0000                  RCHA =           0.0000     RCH-1                            
                 CHD =    24252901.9600                   CHD =       48861.0116     CHD-FROM-IBOUND                  

           TOTAL OUT =    74182903.7846             TOTAL OUT =       68861.0116

            IN - OUT =          -6.2800              IN - OUT =      -4.0577E-04

 PERCENT DISCREPANCY =          -0.00     PERCENT DISCREPANCY =          -0.00




         TIME SUMMARY AT END OF TIME STEP    4 IN STRESS PERIOD   19
                    SECONDS     MINUTES      HOURS       DAYS        YEARS
                    -----------------------------------------------------------
   TIME STEP LENGTH 2.71468E+05  4524.5      75.408      3.1420     8.60231E-03
 STRESS PERIOD TIME 8.43311E+05  14055.      234.25      9.7605     2.67229E-02
         TOTAL TIME 4.55121E+07 7.58535E+05  12642.      526.76      1.4422    


end timestep


start timestep kper="19" kstp="5" mode="normal"

 UBDSV1 SAVING     FLOW-JA-FACE ON UNIT   1015 AT TIME STEP      5, STRESS PERIOD     19
 UBDSV06 SAVING              WEL IN MODEL MUMODEL          PACKAGE MUMODEL         CONNECTED TO MODEL MUMODEL          PACKAGE WEL-1            ON UNIT   1015 AT TIME STEP      5, STRESS PERIOD     19
 UBDSV06 SAVING             RCHA IN MODEL MUMODEL          PACKAGE MUMODEL         CONNECTED TO MODEL MUMODEL          PACKAGE RCH-1            ON UNIT   1015 AT TIME STEP      5, STRESS PERIOD     19

 WEL PACKAGE (WEL-1) FLOW RATES   PERIOD     19   STEP        5
 -----------------------------------------------
   NUMBER   CELLID                    RATE      
 -----------------------------------------------
     1      (1,5,5)              -20000.000     
     2      (1,11,5)              0.0000000     
     3      (1,5,5)               0.0000000     
 -----------------------------------------------




 CHD PACKAGE (CHD-FROM-IBOUND) FLOW RATES   PERIOD     19   STEP        5
 -----------------------------------------------
   NUMBER   CELLID                    RATE      
 -----------------------------------------------
     1      (1,1,1)              -2713.0960     
     2      (1,1,2)              -2713.0856     
     3      (1,1,3)              -2712.9744     
     4      (1,1,4)              -2712.2054     
     5      (1,1,5)              -2709.5456     
     6      (1,1,6)              -2712.2033     
     7      (1,1,7)              -2712.9705     
     8      (1,1,8)              -2713.0804     
     9      (1,1,9)              -2713.0904     
     10     (1,21,1)             -2713.0927     
     11     (1,21,2)             -2713.0940     
     12     (1,21,3)             -2713.0956     
     13     (1,21,4)             -2713.0970     
     14     (1,21,5)             -2713.0982     
     15     (1,21,6)             -2713.0991     
     16     (1,21,7)             -2713.0993     
     17     (1,21,8)             -2713.0982     
     18     (1,21,9)             -2713.0966     
 -----------------------------------------------




 HEAD WILL BE SAVED ON UNIT 1016 AT END OF TIME STEP    5, STRESS PERIOD   19


  VOLUME BUDGET FOR ENTIRE MODEL AT END OF TIME STEP    5, STRESS PERIOD  19
  ---------------------------------------------------------------------------------------------------

     CUMULATIVE VOLUME      L**3       RATES FOR THIS TIME STEP      L**3/T          PACKAGE NAME    
     ------------------                 ------------------------                     ----------------

           IN:                                      IN:
           ---                                      ---
              STO-SS =     8671746.0990                STO-SS =       25085.0753     STORAGE                          
              STO-SY =      327645.5182                STO-SY =         995.0469     STORAGE                          
                 WEL =           0.0000                   WEL =           0.0000     WEL-1                            
                RCHA =    65443022.3573                  RCHA =       42750.0000     RCH-1                            
                 CHD =           0.0000                   CHD =           0.0000     CHD-FROM-IBOUND                  

            TOTAL IN =    74442413.9744              TOTAL IN =       68830.1222

          OUT:                                     OUT:
          ----                                     ----
              STO-SS =    45065158.4270                STO-SS =           0.0000     STORAGE                          
              STO-SY =     1649632.5699                STO-SY =           0.0000     STORAGE                          
                 WEL =     3290618.6467                   WEL =       20000.0000     WEL-1                            
                RCHA =           0.0000                  RCHA =           0.0000     RCH-1                            
                 CHD =    24437010.6110                   CHD =       48830.1223     CHD-FROM-IBOUND                  

           TOTAL OUT =    74442420.2546             TOTAL OUT =       68830.1223

            IN - OUT =          -6.2802              IN - OUT =      -4.3567E-05

 PERCENT DISCREPANCY =          -0.00     PERCENT DISCREPANCY =          -0.00




         TIME SUMMARY AT END OF TIME STEP    5 IN STRESS PERIOD   19
                    SECONDS     MINUTES      HOURS       DAYS        YEARS
                    -----------------------------------------------------------
   TIME STEP LENGTH 3.25762E+05  5429.4      90.489      3.7704     1.03228E-02
 STRESS PERIOD TIME 1.16907E+06  19485.      324.74      13.531     3.70457E-02
         TOTAL TIME 4.58379E+07 7.63965E+05  12733.      530.53      1.4525    


end timestep


start timestep kper="19" kstp="6" mode="normal"

 UBDSV1 SAVING     FLOW-JA-FACE ON UNIT   1015 AT TIME STEP      6, STRESS PERIOD     19
 UBDSV06 SAVING              WEL IN MODEL MUMODEL          PACKAGE MUMODEL         CONNECTED TO MODEL MUMODEL          PACKAGE WEL-1            ON UNIT   1015 AT TIME STEP      6, STRESS PERIOD     19
 UBDSV06 SAVING             RCHA IN MODEL MUMODEL          PACKAGE MUMODEL         CONNECTED TO MODEL MUMODEL          PACKAGE RCH-1            ON UNIT   1015 AT TIME STEP      6, STRESS PERIOD     19

 WEL PACKAGE (WEL-1) FLOW RATES   PERIOD     19   STEP        6
 -----------------------------------------------
   NUMBER   CELLID                    RATE      
 -----------------------------------------------
     1      (1,5,5)              -20000.000     
     2      (1,11,5)              0.0000000     
     3      (1,5,5)               0.0000000     
 -----------------------------------------------




 CHD PACKAGE (CHD-FROM-IBOUND) FLOW RATES   PERIOD     19   STEP        6
 -----------------------------------------------
   NUMBER   CELLID                    RATE      
 -----------------------------------------------
     1      (1,1,1)              -2711.0937     
     2      (1,1,2)              -2711.0815     
     3      (1,1,3)              -2710.9556     
     4      (1,1,4)              -2710.1050     
     5      (1,1,5)              -2707.2375     
     6      (1,1,6)              -2710.1029     
     7      (1,1,7)              -2710.9517     
     8      (1,1,8)              -2711.0763     
     9      (1,1,9)              -2711.0881     
     10     (1,21,1)             -2711.0906     
     11     (1,21,2)             -2711.0919     
     12     (1,21,3)             -2711.0935     
     13     (1,21,4)             -2711.0949     
     14     (1,21,5)             -2711.0961     
     15     (1,21,6)             -2711.0970     
     16     (1,21,7)             -2711.0972     
     17     (1,21,8)             -2711.0961     
     18     (1,21,9)             -2711.0945     
 -----------------------------------------------




 HEAD WILL BE SAVED ON UNIT 1016 AT END OF TIME STEP    6, STRESS PERIOD   19


  VOLUME BUDGET FOR ENTIRE MODEL AT END OF TIME STEP    6, STRESS PERIOD  19
  ---------------------------------------------------------------------------------------------------

     CUMULATIVE VOLUME      L**3       RATES FOR THIS TIME STEP      L**3/T          PACKAGE NAME    
     ------------------                 ------------------------                     ----------------

           IN:                                      IN:
           ---                                      ---
              STO-SS =     8785084.4383                STO-SS =       25050.0856     STORAGE                          
              STO-SY =      332140.3905                STO-SY =         993.4585     STORAGE                          
                 WEL =           0.0000                   WEL =           0.0000     WEL-1                            
                RCHA =    65636443.4130                  RCHA =       42750.0000     RCH-1                            
                 CHD =           0.0000                   CHD =           0.0000     CHD-FROM-IBOUND                  

            TOTAL IN =    74753668.2418              TOTAL IN =       68793.5441

          OUT:                                     OUT:
          ----                                     ----
              STO-SS =    45065158.4270                STO-SS =           0.0000     STORAGE                          
              STO-SY =     1649632.5699                STO-SY =           0.0000     STORAGE                          
                 WEL =     3381108.0295                   WEL =       20000.0000     WEL-1                            
                RCHA =           0.0000                  RCHA =           0.0000     RCH-1                            
                 CHD =    24657775.4959                   CHD =       48793.5442     CHD-FROM-IBOUND                  

           TOTAL OUT =    74753674.5223             TOTAL OUT =       68793.5442

            IN - OUT =          -6.2805              IN - OUT =      -7.7281E-05

 PERCENT DISCREPANCY =          -0.00     PERCENT DISCREPANCY =          -0.00




         TIME SUMMARY AT END OF TIME STEP    6 IN STRESS PERIOD   19
                    SECONDS     MINUTES      HOURS       DAYS        YEARS
                    -----------------------------------------------------------
   TIME STEP LENGTH 3.90914E+05  6515.2      108.59      4.5245     1.23873E-02
 STRESS PERIOD TIME 1.55999E+06  26000.      433.33      18.055     4.94330E-02
         TOTAL TIME 4.62288E+07 7.70480E+05  12841.      535.06      1.4649    


end timestep


start timestep kper="19" kstp="7" mode="normal"

 UBDSV1 SAVING     FLOW-JA-FACE ON UNIT   1015 AT TIME STEP      7, STRESS PERIOD     19
 UBDSV06 SAVING              WEL IN MODEL MUMODEL          PACKAGE MUMODEL         CONNECTED TO MODEL MUMODEL          PACKAGE WEL-1            ON UNIT   1015 AT TIME STEP      7, STRESS PERIOD     19
 UBDSV06 SAVING             RCHA IN MODEL MUMODEL          PACKAGE MUMODEL         CONNECTED TO MODEL MUMODEL          PACKAGE RCH-1            ON UNIT   1015 AT TIME STEP      7, STRESS PERIOD     19

 WEL PACKAGE (WEL-1) FLOW RATES   PERIOD     19   STEP        7
 -----------------------------------------------
   NUMBER   CELLID                    RATE      
 -----------------------------------------------
     1      (1,5,5)              -20000.000     
     2      (1,11,5)              0.0000000     
     3      (1,5,5)               0.0000000     
 -----------------------------------------------




 CHD PACKAGE (CHD-FROM-IBOUND) FLOW RATES   PERIOD     19   STEP        7
 -----------------------------------------------
   NUMBER   CELLID                    RATE      
 -----------------------------------------------
     1      (1,1,1)              -2708.7318     
     2      (1,1,2)              -2708.7171     
     3      (1,1,3)              -2708.5713     
     4      (1,1,4)              -2707.6147     
     5      (1,1,5)              -2704.4859     
     6      (1,1,6)              -2707.6127     
     7      (1,1,7)              -2708.5675     
     8      (1,1,8)              -2708.7119     
     9      (1,1,9)              -2708.7262     
     10     (1,21,1)             -2708.7290     
     11     (1,21,2)             -2708.7303     
     12     (1,21,3)             -2708.7319     
     13     (1,21,4)             -2708.7332     
     14     (1,21,5)             -2708.7344     
     15     (1,21,6)             -2708.7353     
     16     (1,21,7)             -2708.7355     
     17     (1,21,8)             -2708.7344     
     18     (1,21,9)             -2708.7329     
 -----------------------------------------------




 HEAD WILL BE SAVED ON UNIT 1016 AT END OF TIME STEP    7, STRESS PERIOD   19


  VOLUME BUDGET FOR ENTIRE MODEL AT END OF TIME STEP    7, STRESS PERIOD  19
  ---------------------------------------------------------------------------------------------------

     CUMULATIVE VOLUME      L**3       RATES FOR THIS TIME STEP      L**3/T          PACKAGE NAME    
     ------------------                 ------------------------                     ----------------

           IN:                                      IN:
           ---                                      ---
              STO-SS =     8920866.0839                STO-SS =       25008.7619     STORAGE                          
              STO-SY =      337524.0052                STO-SY =         991.5739     STORAGE                          
                 WEL =           0.0000                   WEL =           0.0000     WEL-1                            
                RCHA =    65868548.6798                  RCHA =       42750.0000     RCH-1                            
                 CHD =           0.0000                   CHD =           0.0000     CHD-FROM-IBOUND                  

            TOTAL IN =    75126938.7689              TOTAL IN =       68750.3358

          OUT:                                     OUT:
          ----                                     ----
              STO-SS =    45065158.4270                STO-SS =           0.0000     STORAGE                          
              STO-SY =     1649632.5699                STO-SY =           0.0000     STORAGE                          
                 WEL =     3489695.2888                   WEL =       20000.0000     WEL-1                            
                RCHA =           0.0000                  RCHA =           0.0000     RCH-1                            
                 CHD =    24922458.7644                   CHD =       48750.3359     CHD-FROM-IBOUND                  

           TOTAL OUT =    75126945.0501             TOTAL OUT =       68750.3359

            IN - OUT =          -6.2812              IN - OUT =      -1.2494E-04

 PERCENT DISCREPANCY =          -0.00     PERCENT DISCREPANCY =          -0.00




         TIME SUMMARY AT END OF TIME STEP    7 IN STRESS PERIOD   19
                    SECONDS     MINUTES      HOURS       DAYS        YEARS
                    -----------------------------------------------------------
   TIME STEP LENGTH 4.69097E+05  7818.3      130.30      5.4294     1.48648E-02
 STRESS PERIOD TIME 2.02908E+06  33818.      563.63      23.485     6.42978E-02
         TOTAL TIME 4.66979E+07 7.78298E+05  12972.      540.48      1.4798    


end timestep


start timestep kper="19" kstp="8" mode="normal"

 UBDSV1 SAVING     FLOW-JA-FACE ON UNIT   1015 AT TIME STEP      8, STRESS PERIOD     19
 UBDSV06 SAVING              WEL IN MODEL MUMODEL          PACKAGE MUMODEL         CONNECTED TO MODEL MUMODEL          PACKAGE WEL-1            ON UNIT   1015 AT TIME STEP      8, STRESS PERIOD     19
 UBDSV06 SAVING             RCHA IN MODEL MUMODEL          PACKAGE MUMODEL         CONNECTED TO MODEL MUMODEL          PACKAGE RCH-1            ON UNIT   1015 AT TIME STEP      8, STRESS PERIOD     19

 WEL PACKAGE (WEL-1) FLOW RATES   PERIOD     19   STEP        8
 -----------------------------------------------
   NUMBER   CELLID                    RATE      
 -----------------------------------------------
     1      (1,5,5)              -20000.000     
     2      (1,11,5)              0.0000000     
     3      (1,5,5)               0.0000000     
 -----------------------------------------------




 CHD PACKAGE (CHD-FROM-IBOUND) FLOW RATES   PERIOD     19   STEP        8
 -----------------------------------------------
   NUMBER   CELLID                    RATE      
 -----------------------------------------------
     1      (1,1,1)              -2705.9546     
     2      (1,1,2)              -2705.9364     
     3      (1,1,3)              -2705.7636     
     4      (1,1,4)              -2704.6675     
     5      (1,1,5)              -2701.2081     
     6      (1,1,6)              -2704.6654     
     7      (1,1,7)              -2705.7598     
     8      (1,1,8)              -2705.9313     
     9      (1,1,9)              -2705.9490     
     10     (1,21,1)             -2705.9522     
     11     (1,21,2)             -2705.9535     
     12     (1,21,3)             -2705.9550     
     13     (1,21,4)             -2705.9564     
     14     (1,21,5)             -2705.9576     
     15     (1,21,6)             -2705.9585     
     16     (1,21,7)             -2705.9586     
     17     (1,21,8)             -2705.9576     
     18     (1,21,9)             -2705.9561     
 -----------------------------------------------




 HEAD WILL BE SAVED ON UNIT 1016 AT END OF TIME STEP    8, STRESS PERIOD   19


  VOLUME BUDGET FOR ENTIRE MODEL AT END OF TIME STEP    8, STRESS PERIOD  19
  ---------------------------------------------------------------------------------------------------

     CUMULATIVE VOLUME      L**3       RATES FOR THIS TIME STEP      L**3/T          PACKAGE NAME    
     ------------------                 ------------------------                     ----------------

           IN:                                      IN:
           ---                                      ---
              STO-SS =     9083486.9969                STO-SS =       24960.0972     STORAGE                          
              STO-SY =      343969.8127                STO-SY =         989.3437     STORAGE                          
                 WEL =           0.0000                   WEL =           0.0000     WEL-1                            
                RCHA =    66147075.0000                  RCHA =       42750.0000     RCH-1                            
                 CHD =           0.0000                   CHD =           0.0000     CHD-FROM-IBOUND                  

            TOTAL IN =    75574531.8096              TOTAL IN =       68699.4410

          OUT:                                     OUT:
          ----                                     ----
              STO-SS =    45065158.4270                STO-SS =           0.0000     STORAGE                          
              STO-SY =     1649632.5699                STO-SY =           0.0000     STORAGE                          
                 WEL =     3620000.0000                   WEL =       20000.0000     WEL-1                            
                RCHA =           0.0000                  RCHA =           0.0000     RCH-1                            
                 CHD =    25239747.0953                   CHD =       48699.4412     CHD-FROM-IBOUND                  

           TOTAL OUT =    75574538.0922             TOTAL OUT =       68699.4412

            IN - OUT =          -6.2826              IN - OUT =      -2.0482E-04

 PERCENT DISCREPANCY =          -0.00     PERCENT DISCREPANCY =          -0.00




         TIME SUMMARY AT END OF TIME STEP    8 IN STRESS PERIOD   19
                    SECONDS     MINUTES      HOURS       DAYS        YEARS
                    -----------------------------------------------------------
   TIME STEP LENGTH 5.62916E+05  9381.9      156.37      6.5152     1.78377E-02
 STRESS PERIOD TIME 2.59200E+06  43200.      720.00      30.000     8.21355E-02
         TOTAL TIME 4.72608E+07 7.87680E+05  13128.      547.00      1.4976    


end timestep


start timestep kper="20" kstp="1" mode="normal"


 OUTPUT CONTROL FOR STRESS PERIOD 20 IS REPEATED USING SETTINGS FROM A PREVIOUS STRESS PERIOD.


 STRESS PERIOD 20 IS TRANSIENT


 REUSING WELS FROM LAST STRESS PERIOD

 REUSING CHDS FROM LAST STRESS PERIOD
 UBDSV1 SAVING     FLOW-JA-FACE ON UNIT   1015 AT TIME STEP      1, STRESS PERIOD     20
 UBDSV06 SAVING              WEL IN MODEL MUMODEL          PACKAGE MUMODEL         CONNECTED TO MODEL MUMODEL          PACKAGE WEL-1            ON UNIT   1015 AT TIME STEP      1, STRESS PERIOD     20
 UBDSV06 SAVING             RCHA IN MODEL MUMODEL          PACKAGE MUMODEL         CONNECTED TO MODEL MUMODEL          PACKAGE RCH-1            ON UNIT   1015 AT TIME STEP      1, STRESS PERIOD     20

 WEL PACKAGE (WEL-1) FLOW RATES   PERIOD     20   STEP        1
 -----------------------------------------------
   NUMBER   CELLID                    RATE      
 -----------------------------------------------
     1      (1,5,5)              -20000.000     
     2      (1,11,5)              0.0000000     
     3      (1,5,5)               0.0000000     
 -----------------------------------------------




 CHD PACKAGE (CHD-FROM-IBOUND) FLOW RATES   PERIOD     20   STEP        1
 -----------------------------------------------
   NUMBER   CELLID                    RATE      
 -----------------------------------------------
     1      (1,1,1)              -2704.3597     
     2      (1,1,2)              -2704.3404     
     3      (1,1,3)              -2704.1596     
     4      (1,1,4)              -2703.0221     
     5      (1,1,5)              -2699.4660     
     6      (1,1,6)              -2703.0201     
     7      (1,1,7)              -2704.1558     
     8      (1,1,8)              -2704.3353     
     9      (1,1,9)              -2704.3541     
     10     (1,21,1)             -2704.3574     
     11     (1,21,2)             -2704.3587     
     12     (1,21,3)             -2704.3603     
     13     (1,21,4)             -2704.3616     
     14     (1,21,5)             -2704.3628     
     15     (1,21,6)             -2704.3637     
     16     (1,21,7)             -2704.3638     
     17     (1,21,8)             -2704.3628     
     18     (1,21,9)             -2704.3613     
 -----------------------------------------------




 HEAD WILL BE SAVED ON UNIT 1016 AT END OF TIME STEP    1, STRESS PERIOD   20


  VOLUME BUDGET FOR ENTIRE MODEL AT END OF TIME STEP    1, STRESS PERIOD  20
  ---------------------------------------------------------------------------------------------------

     CUMULATIVE VOLUME      L**3       RATES FOR THIS TIME STEP      L**3/T          PACKAGE NAME    
     ------------------                 ------------------------                     ----------------

           IN:                                      IN:
           ---                                      ---
              STO-SS =     9200070.9772                STO-SS =       62049.3219     STORAGE                          
              STO-SY =      348377.9633                STO-SY =        2346.1435     STORAGE                          
                 WEL =           0.0000                   WEL =           0.0000     WEL-1                            
                RCHA =    66155107.2637                  RCHA =        4275.0000     RCH-1                            
                 CHD =           0.0000                   CHD =           0.0000     CHD-FROM-IBOUND                  

            TOTAL IN =    75703556.2042              TOTAL IN =       68670.4654

          OUT:                                     OUT:
          ----                                     ----
              STO-SS =    45065158.4270                STO-SS =           0.0000     STORAGE                          
              STO-SY =     1649632.5699                STO-SY =           0.0000     STORAGE                          
                 WEL =     3657577.8419                   WEL =       20000.0000     WEL-1                            
                RCHA =           0.0000                  RCHA =           0.0000     RCH-1                            
                 CHD =    25331193.6481                   CHD =       48670.4655     CHD-FROM-IBOUND                  

           TOTAL OUT =    75703562.4869             TOTAL OUT =       68670.4655

            IN - OUT =          -6.2827              IN - OUT =      -8.1583E-05

 PERCENT DISCREPANCY =          -0.00     PERCENT DISCREPANCY =          -0.00




         TIME SUMMARY AT END OF TIME STEP    1 IN STRESS PERIOD   20
                    SECONDS     MINUTES      HOURS       DAYS        YEARS
                    -----------------------------------------------------------
   TIME STEP LENGTH 1.62336E+05  2705.6      45.093      1.8789     5.14413E-03
 STRESS PERIOD TIME 1.62336E+05  2705.6      45.093      1.8789     5.14413E-03
         TOTAL TIME 4.74231E+07 7.90386E+05  13173.      548.88      1.5027    


end timestep


start timestep kper="20" kstp="2" mode="normal"

 UBDSV1 SAVING     FLOW-JA-FACE ON UNIT   1015 AT TIME STEP      2, STRESS PERIOD     20
 UBDSV06 SAVING              WEL IN MODEL MUMODEL          PACKAGE MUMODEL         CONNECTED TO MODEL MUMODEL          PACKAGE WEL-1            ON UNIT   1015 AT TIME STEP      2, STRESS PERIOD     20
 UBDSV06 SAVING             RCHA IN MODEL MUMODEL          PACKAGE MUMODEL         CONNECTED TO MODEL MUMODEL          PACKAGE RCH-1            ON UNIT   1015 AT TIME STEP      2, STRESS PERIOD     20

 WEL PACKAGE (WEL-1) FLOW RATES   PERIOD     20   STEP        2
 -----------------------------------------------
   NUMBER   CELLID                    RATE      
 -----------------------------------------------
     1      (1,5,5)              -20000.000     
     2      (1,11,5)              0.0000000     
     3      (1,5,5)               0.0000000     
 -----------------------------------------------




 CHD PACKAGE (CHD-FROM-IBOUND) FLOW RATES   PERIOD     20   STEP        2
 -----------------------------------------------
   NUMBER   CELLID                    RATE      
 -----------------------------------------------
     1      (1,1,1)              -2702.4565     
     2      (1,1,2)              -2702.4360     
     3      (1,1,3)              -2702.2451     
     4      (1,1,4)              -2701.0565     
     5      (1,1,5)              -2697.3823     
     6      (1,1,6)              -2701.0545     
     7      (1,1,7)              -2702.2412     
     8      (1,1,8)              -2702.4309     
     9      (1,1,9)              -2702.4510     
     10     (1,21,1)             -2702.4545     
     11     (1,21,2)             -2702.4557     
     12     (1,21,3)             -2702.4573     
     13     (1,21,4)             -2702.4586     
     14     (1,21,5)             -2702.4598     
     15     (1,21,6)             -2702.4607     
     16     (1,21,7)             -2702.4609     
     17     (1,21,8)             -2702.4598     
     18     (1,21,9)             -2702.4583     
 -----------------------------------------------




 HEAD WILL BE SAVED ON UNIT 1016 AT END OF TIME STEP    2, STRESS PERIOD   20


  VOLUME BUDGET FOR ENTIRE MODEL AT END OF TIME STEP    2, STRESS PERIOD  20
  ---------------------------------------------------------------------------------------------------

     CUMULATIVE VOLUME      L**3       RATES FOR THIS TIME STEP      L**3/T          PACKAGE NAME    
     ------------------                 ------------------------                     ----------------

           IN:                                      IN:
           ---                                      ---
              STO-SS =     9339896.9655                STO-SS =       62016.1516     STORAGE                          
              STO-SY =      353664.5519                STO-SY =        2344.7278     STORAGE                          
                 WEL =           0.0000                   WEL =           0.0000     WEL-1                            
                RCHA =    66164745.9802                  RCHA =        4275.0000     RCH-1                            
                 CHD =           0.0000                   CHD =           0.0000     CHD-FROM-IBOUND                  

            TOTAL IN =    75858307.4976              TOTAL IN =       68635.8794

          OUT:                                     OUT:
          ----                                     ----
              STO-SS =    45065158.4270                STO-SS =           0.0000     STORAGE                          
              STO-SY =     1649632.5699                STO-SY =           0.0000     STORAGE                          
                 WEL =     3702671.2522                   WEL =       20000.0000     WEL-1                            
                RCHA =           0.0000                  RCHA =           0.0000     RCH-1                            
                 CHD =    25440851.5315                   CHD =       48635.8795     CHD-FROM-IBOUND                  

           TOTAL OUT =    75858313.7806             TOTAL OUT =       68635.8795

            IN - OUT =          -6.2830              IN - OUT =      -1.4612E-04

 PERCENT DISCREPANCY =          -0.00     PERCENT DISCREPANCY =          -0.00




         TIME SUMMARY AT END OF TIME STEP    2 IN STRESS PERIOD   20
                    SECONDS     MINUTES      HOURS       DAYS        YEARS
                    -----------------------------------------------------------
   TIME STEP LENGTH 1.94804E+05  3246.7      54.112      2.2547     6.17295E-03
 STRESS PERIOD TIME 3.57140E+05  5952.3      99.206      4.1336     1.13171E-02
         TOTAL TIME 4.76179E+07 7.93632E+05  13227.      551.13      1.5089    


end timestep


start timestep kper="20" kstp="3" mode="normal"

 UBDSV1 SAVING     FLOW-JA-FACE ON UNIT   1015 AT TIME STEP      3, STRESS PERIOD     20
 UBDSV06 SAVING              WEL IN MODEL MUMODEL          PACKAGE MUMODEL         CONNECTED TO MODEL MUMODEL          PACKAGE WEL-1            ON UNIT   1015 AT TIME STEP      3, STRESS PERIOD     20
 UBDSV06 SAVING             RCHA IN MODEL MUMODEL          PACKAGE MUMODEL         CONNECTED TO MODEL MUMODEL          PACKAGE RCH-1            ON UNIT   1015 AT TIME STEP      3, STRESS PERIOD     20

 WEL PACKAGE (WEL-1) FLOW RATES   PERIOD     20   STEP        3
 -----------------------------------------------
   NUMBER   CELLID                    RATE      
 -----------------------------------------------
     1      (1,5,5)              -20000.000     
     2      (1,11,5)              0.0000000     
     3      (1,5,5)               0.0000000     
 -----------------------------------------------




 CHD PACKAGE (CHD-FROM-IBOUND) FLOW RATES   PERIOD     20   STEP        3
 -----------------------------------------------
   NUMBER   CELLID                    RATE      
 -----------------------------------------------
     1      (1,1,1)              -2700.1880     
     2      (1,1,2)              -2700.1658     
     3      (1,1,3)              -2699.9622     
     4      (1,1,4)              -2698.7102     
     5      (1,1,5)              -2694.8914     
     6      (1,1,6)              -2698.7082     
     7      (1,1,7)              -2699.9584     
     8      (1,1,8)              -2700.1608     
     9      (1,1,9)              -2700.1825     
     10     (1,21,1)             -2700.1862     
     11     (1,21,2)             -2700.1875     
     12     (1,21,3)             -2700.1890     
     13     (1,21,4)             -2700.1903     
     14     (1,21,5)             -2700.1915     
     15     (1,21,6)             -2700.1924     
     16     (1,21,7)             -2700.1926     
     17     (1,21,8)             -2700.1915     
     18     (1,21,9)             -2700.1900     
 -----------------------------------------------




 HEAD WILL BE SAVED ON UNIT 1016 AT END OF TIME STEP    3, STRESS PERIOD   20


  VOLUME BUDGET FOR ENTIRE MODEL AT END OF TIME STEP    3, STRESS PERIOD  20
  ---------------------------------------------------------------------------------------------------

     CUMULATIVE VOLUME      L**3       RATES FOR THIS TIME STEP      L**3/T          PACKAGE NAME    
     ------------------                 ------------------------                     ----------------

           IN:                                      IN:
           ---                                      ---
              STO-SS =     9507581.1385                STO-SS =       61976.5992     STORAGE                          
              STO-SY =      360003.8895                STO-SY =        2343.0392     STORAGE                          
                 WEL =           0.0000                   WEL =           0.0000     WEL-1                            
                RCHA =    66176312.4399                  RCHA =        4275.0000     RCH-1                            
                 CHD =           0.0000                   CHD =           0.0000     CHD-FROM-IBOUND                  

            TOTAL IN =    76043897.4679              TOTAL IN =       68594.6384

          OUT:                                     OUT:
          ----                                     ----
              STO-SS =    45065158.4270                STO-SS =           0.0000     STORAGE                          
              STO-SY =     1649632.5699                STO-SY =           0.0000     STORAGE                          
                 WEL =     3756783.3445                   WEL =       20000.0000     WEL-1                            
                RCHA =           0.0000                  RCHA =           0.0000     RCH-1                            
                 CHD =    25572329.4102                   CHD =       48594.6386     CHD-FROM-IBOUND                  

           TOTAL OUT =    76043903.7516             TOTAL OUT =       68594.6386

            IN - OUT =          -6.2837              IN - OUT =      -2.4469E-04

 PERCENT DISCREPANCY =          -0.00     PERCENT DISCREPANCY =          -0.00




         TIME SUMMARY AT END OF TIME STEP    3 IN STRESS PERIOD   20
                    SECONDS     MINUTES      HOURS       DAYS        YEARS
                    -----------------------------------------------------------
   TIME STEP LENGTH 2.33764E+05  3896.1      64.935      2.7056     7.40754E-03
 STRESS PERIOD TIME 5.90904E+05  9848.4      164.14      6.8392     1.87246E-02
         TOTAL TIME 4.78517E+07 7.97528E+05  13292.      553.84      1.5163    


end timestep


start timestep kper="20" kstp="4" mode="normal"

 UBDSV1 SAVING     FLOW-JA-FACE ON UNIT   1015 AT TIME STEP      4, STRESS PERIOD     20
 UBDSV06 SAVING              WEL IN MODEL MUMODEL          PACKAGE MUMODEL         CONNECTED TO MODEL MUMODEL          PACKAGE WEL-1            ON UNIT   1015 AT TIME STEP      4, STRESS PERIOD     20
 UBDSV06 SAVING             RCHA IN MODEL MUMODEL          PACKAGE MUMODEL         CONNECTED TO MODEL MUMODEL          PACKAGE RCH-1            ON UNIT   1015 AT TIME STEP      4, STRESS PERIOD     20

 WEL PACKAGE (WEL-1) FLOW RATES   PERIOD     20   STEP        4
 -----------------------------------------------
   NUMBER   CELLID                    RATE      
 -----------------------------------------------
     1      (1,5,5)              -20000.000     
     2      (1,11,5)              0.0000000     
     3      (1,5,5)               0.0000000     
 -----------------------------------------------




 CHD PACKAGE (CHD-FROM-IBOUND) FLOW RATES   PERIOD     20   STEP        4
 -----------------------------------------------
   NUMBER   CELLID                    RATE      
 -----------------------------------------------
     1      (1,1,1)              -2697.4876     
     2      (1,1,2)              -2697.4632     
     3      (1,1,3)              -2697.2435     
     4      (1,1,4)              -2695.9121     
     5      (1,1,5)              -2691.9156     
     6      (1,1,6)              -2695.9101     
     7      (1,1,7)              -2697.2396     
     8      (1,1,8)              -2697.4582     
     9      (1,1,9)              -2697.4821     
     10     (1,21,1)             -2697.4861     
     11     (1,21,2)             -2697.4873     
     12     (1,21,3)             -2697.4889     
     13     (1,21,4)             -2697.4902     
     14     (1,21,5)             -2697.4914     
     15     (1,21,6)             -2697.4923     
     16     (1,21,7)             -2697.4924     
     17     (1,21,8)             -2697.4913     
     18     (1,21,9)             -2697.4899     
 -----------------------------------------------




 HEAD WILL BE SAVED ON UNIT 1016 AT END OF TIME STEP    4, STRESS PERIOD   20


  VOLUME BUDGET FOR ENTIRE MODEL AT END OF TIME STEP    4, STRESS PERIOD  20
  ---------------------------------------------------------------------------------------------------

     CUMULATIVE VOLUME      L**3       RATES FOR THIS TIME STEP      L**3/T          PACKAGE NAME    
     ------------------                 ------------------------                     ----------------

           IN:                                      IN:
           ---                                      ---
              STO-SS =     9708649.2077                STO-SS =       61929.4938     STORAGE                          
              STO-SY =      367604.5634                STO-SY =        2341.0275     STORAGE                          
                 WEL =           0.0000                   WEL =           0.0000     WEL-1                            
                RCHA =    66190192.1916                  RCHA =        4275.0000     RCH-1                            
                 CHD =           0.0000                   CHD =           0.0000     CHD-FROM-IBOUND                  

            TOTAL IN =    76266445.9627              TOTAL IN =       68545.5214

          OUT:                                     OUT:
          ----                                     ----
              STO-SS =    45065158.4270                STO-SS =           0.0000     STORAGE                          
              STO-SY =     1649632.5699                STO-SY =           0.0000     STORAGE                          
                 WEL =     3821717.8553                   WEL =       20000.0000     WEL-1                            
                RCHA =           0.0000                  RCHA =           0.0000     RCH-1                            
                 CHD =    25729943.3955                   CHD =       48545.5218     CHD-FROM-IBOUND                  

           TOTAL OUT =    76266452.2478             TOTAL OUT =       68545.5218

            IN - OUT =          -6.2850              IN - OUT =      -4.1074E-04

 PERCENT DISCREPANCY =          -0.00     PERCENT DISCREPANCY =          -0.00




         TIME SUMMARY AT END OF TIME STEP    4 IN STRESS PERIOD   20
                    SECONDS     MINUTES      HOURS       DAYS        YEARS
                    -----------------------------------------------------------
   TIME STEP LENGTH 2.80517E+05  4675.3      77.921      3.2467     8.88905E-03
 STRESS PERIOD TIME 8.71421E+05  14524.      242.06      10.086     2.76137E-02
         TOTAL TIME 4.81322E+07 8.02204E+05  13370.      557.09      1.5252    


end timestep


start timestep kper="20" kstp="5" mode="normal"

 UBDSV1 SAVING     FLOW-JA-FACE ON UNIT   1015 AT TIME STEP      5, STRESS PERIOD     20
 UBDSV06 SAVING              WEL IN MODEL MUMODEL          PACKAGE MUMODEL         CONNECTED TO MODEL MUMODEL          PACKAGE WEL-1            ON UNIT   1015 AT TIME STEP      5, STRESS PERIOD     20
 UBDSV06 SAVING             RCHA IN MODEL MUMODEL          PACKAGE MUMODEL         CONNECTED TO MODEL MUMODEL          PACKAGE RCH-1            ON UNIT   1015 AT TIME STEP      5, STRESS PERIOD     20

 WEL PACKAGE (WEL-1) FLOW RATES   PERIOD     20   STEP        5
 -----------------------------------------------
   NUMBER   CELLID                    RATE      
 -----------------------------------------------
     1      (1,5,5)              -20000.000     
     2      (1,11,5)              0.0000000     
     3      (1,5,5)               0.0000000     
 -----------------------------------------------




 CHD PACKAGE (CHD-FROM-IBOUND) FLOW RATES   PERIOD     20   STEP        5
 -----------------------------------------------
   NUMBER   CELLID                    RATE      
 -----------------------------------------------
     1      (1,1,1)              -2694.2779     
     2      (1,1,2)              -2694.2507     
     3      (1,1,3)              -2694.0102     
     4      (1,1,4)              -2692.5789     
     5      (1,1,5)              -2688.3634     
     6      (1,1,6)              -2692.5769     
     7      (1,1,7)              -2694.0064     
     8      (1,1,8)              -2694.2457     
     9      (1,1,9)              -2694.2724     
     10     (1,21,1)             -2694.2768     
     11     (1,21,2)             -2694.2780     
     12     (1,21,3)             -2694.2795     
     13     (1,21,4)             -2694.2808     
     14     (1,21,5)             -2694.2820     
     15     (1,21,6)             -2694.2829     
     16     (1,21,7)             -2694.2830     
     17     (1,21,8)             -2694.2820     
     18     (1,21,9)             -2694.2805     
 -----------------------------------------------




 HEAD WILL BE SAVED ON UNIT 1016 AT END OF TIME STEP    5, STRESS PERIOD   20


  VOLUME BUDGET FOR ENTIRE MODEL AT END OF TIME STEP    5, STRESS PERIOD  20
  ---------------------------------------------------------------------------------------------------

     CUMULATIVE VOLUME      L**3       RATES FOR THIS TIME STEP      L**3/T          PACKAGE NAME    
     ------------------                 ------------------------                     ----------------

           IN:                                      IN:
           ---                                      ---
              STO-SS =     9949712.6313                STO-SS =       61873.4734     STORAGE                          
              STO-SY =      376716.0492                STO-SY =        2338.6346     STORAGE                          
                 WEL =           0.0000                   WEL =           0.0000     WEL-1                            
                RCHA =    66206847.8936                  RCHA =        4275.0000     RCH-1                            
                 CHD =           0.0000                   CHD =           0.0000     CHD-FROM-IBOUND                  

            TOTAL IN =    76533276.5741              TOTAL IN =       68487.1080

          OUT:                                     OUT:
          ----                                     ----
              STO-SS =    45065158.4270                STO-SS =           0.0000     STORAGE                          
              STO-SY =     1649632.5699                STO-SY =           0.0000     STORAGE                          
                 WEL =     3899639.2682                   WEL =       20000.0000     WEL-1                            
                RCHA =           0.0000                  RCHA =           0.0000     RCH-1                            
                 CHD =    25918852.5941                   CHD =       48487.1081     CHD-FROM-IBOUND                  

           TOTAL OUT =    76533282.8593             TOTAL OUT =       68487.1081

            IN - OUT =          -6.2852              IN - OUT =      -4.6469E-05

 PERCENT DISCREPANCY =          -0.00     PERCENT DISCREPANCY =          -0.00




         TIME SUMMARY AT END OF TIME STEP    5 IN STRESS PERIOD   20
                    SECONDS     MINUTES      HOURS       DAYS        YEARS
                    -----------------------------------------------------------
   TIME STEP LENGTH 3.36621E+05  5610.3      93.506      3.8961     1.06669E-02
 STRESS PERIOD TIME 1.20804E+06  20134.      335.57      13.982     3.82805E-02
         TOTAL TIME 4.84688E+07 8.07814E+05  13464.      560.98      1.5359    


end timestep


start timestep kper="20" kstp="6" mode="normal"

 UBDSV1 SAVING     FLOW-JA-FACE ON UNIT   1015 AT TIME STEP      6, STRESS PERIOD     20
 UBDSV06 SAVING              WEL IN MODEL MUMODEL          PACKAGE MUMODEL         CONNECTED TO MODEL MUMODEL          PACKAGE WEL-1            ON UNIT   1015 AT TIME STEP      6, STRESS PERIOD     20
 UBDSV06 SAVING             RCHA IN MODEL MUMODEL          PACKAGE MUMODEL         CONNECTED TO MODEL MUMODEL          PACKAGE RCH-1            ON UNIT   1015 AT TIME STEP      6, STRESS PERIOD     20

 WEL PACKAGE (WEL-1) FLOW RATES   PERIOD     20   STEP        6
 -----------------------------------------------
   NUMBER   CELLID                    RATE      
 -----------------------------------------------
     1      (1,5,5)              -20000.000     
     2      (1,11,5)              0.0000000     
     3      (1,5,5)               0.0000000     
 -----------------------------------------------




 CHD PACKAGE (CHD-FROM-IBOUND) FLOW RATES   PERIOD     20   STEP        6
 -----------------------------------------------
   NUMBER   CELLID                    RATE      
 -----------------------------------------------
     1      (1,1,1)              -2690.4698     
     2      (1,1,2)              -2690.4388     
     3      (1,1,3)              -2690.1714     
     4      (1,1,4)              -2688.6132     
     5      (1,1,5)              -2684.1266     
     6      (1,1,6)              -2688.6112     
     7      (1,1,7)              -2690.1676     
     8      (1,1,8)              -2690.4338     
     9      (1,1,9)              -2690.4644     
     10     (1,21,1)             -2690.4692     
     11     (1,21,2)             -2690.4704     
     12     (1,21,3)             -2690.4719     
     13     (1,21,4)             -2690.4732     
     14     (1,21,5)             -2690.4744     
     15     (1,21,6)             -2690.4753     
     16     (1,21,7)             -2690.4754     
     17     (1,21,8)             -2690.4744     
     18     (1,21,9)             -2690.4729     
 -----------------------------------------------




 HEAD WILL BE SAVED ON UNIT 1016 AT END OF TIME STEP    6, STRESS PERIOD   20


  VOLUME BUDGET FOR ENTIRE MODEL AT END OF TIME STEP    6, STRESS PERIOD  20
  ---------------------------------------------------------------------------------------------------

     CUMULATIVE VOLUME      L**3       RATES FOR THIS TIME STEP      L**3/T          PACKAGE NAME    
     ------------------                 ------------------------                     ----------------

           IN:                                      IN:
           ---                                      ---
              STO-SS =    10238677.7745                STO-SS =       61806.9609     STORAGE                          
              STO-SY =      387636.5471                STO-SY =        2335.7931     STORAGE                          
                 WEL =           0.0000                   WEL =           0.0000     WEL-1                            
                RCHA =    66226834.7360                  RCHA =        4275.0000     RCH-1                            
                 CHD =           0.0000                   CHD =           0.0000     CHD-FROM-IBOUND                  

            TOTAL IN =    76853149.0576              TOTAL IN =       68417.7540

          OUT:                                     OUT:
          ----                                     ----
              STO-SS =    45065158.4270                STO-SS =           0.0000     STORAGE                          
              STO-SY =     1649632.5699                STO-SY =           0.0000     STORAGE                          
                 WEL =     3993144.9638                   WEL =       20000.0000     WEL-1                            
                RCHA =           0.0000                  RCHA =           0.0000     RCH-1                            
                 CHD =    26145219.3825                   CHD =       48417.7540     CHD-FROM-IBOUND                  

           TOTAL OUT =    76853155.3432             TOTAL OUT =       68417.7540

            IN - OUT =          -6.2856              IN - OUT =      -7.9199E-05

 PERCENT DISCREPANCY =          -0.00     PERCENT DISCREPANCY =          -0.00




         TIME SUMMARY AT END OF TIME STEP    6 IN STRESS PERIOD   20
                    SECONDS     MINUTES      HOURS       DAYS        YEARS
                    -----------------------------------------------------------
   TIME STEP LENGTH 4.03945E+05  6732.4      112.21      4.6753     1.28002E-02
 STRESS PERIOD TIME 1.61199E+06  26866.      447.77      18.657     5.10808E-02
         TOTAL TIME 4.88728E+07 8.14546E+05  13576.      565.66      1.5487    


end timestep


start timestep kper="20" kstp="7" mode="normal"

 UBDSV1 SAVING     FLOW-JA-FACE ON UNIT   1015 AT TIME STEP      7, STRESS PERIOD     20
 UBDSV06 SAVING              WEL IN MODEL MUMODEL          PACKAGE MUMODEL         CONNECTED TO MODEL MUMODEL          PACKAGE WEL-1            ON UNIT   1015 AT TIME STEP      7, STRESS PERIOD     20
 UBDSV06 SAVING             RCHA IN MODEL MUMODEL          PACKAGE MUMODEL         CONNECTED TO MODEL MUMODEL          PACKAGE RCH-1            ON UNIT   1015 AT TIME STEP      7, STRESS PERIOD     20

 WEL PACKAGE (WEL-1) FLOW RATES   PERIOD     20   STEP        7
 -----------------------------------------------
   NUMBER   CELLID                    RATE      
 -----------------------------------------------
     1      (1,5,5)              -20000.000     
     2      (1,11,5)              0.0000000     
     3      (1,5,5)               0.0000000     
 -----------------------------------------------




 CHD PACKAGE (CHD-FROM-IBOUND) FLOW RATES   PERIOD     20   STEP        7
 -----------------------------------------------
   NUMBER   CELLID                    RATE      
 -----------------------------------------------
     1      (1,1,1)              -2685.9614     
     2      (1,1,2)              -2685.9254     
     3      (1,1,3)              -2685.6225     
     4      (1,1,4)              -2683.9018     
     5      (1,1,5)              -2679.0781     
     6      (1,1,6)              -2683.8998     
     7      (1,1,7)              -2685.6188     
     8      (1,1,8)              -2685.9204     
     9      (1,1,9)              -2685.9560     
     10     (1,21,1)             -2685.9615     
     11     (1,21,2)             -2685.9627     
     12     (1,21,3)             -2685.9642     
     13     (1,21,4)             -2685.9655     
     14     (1,21,5)             -2685.9666     
     15     (1,21,6)             -2685.9675     
     16     (1,21,7)             -2685.9676     
     17     (1,21,8)             -2685.9666     
     18     (1,21,9)             -2685.9652     
 -----------------------------------------------




 HEAD WILL BE SAVED ON UNIT 1016 AT END OF TIME STEP    7, STRESS PERIOD   20


  VOLUME BUDGET FOR ENTIRE MODEL AT END OF TIME STEP    7, STRESS PERIOD  20
  ---------------------------------------------------------------------------------------------------

     CUMULATIVE VOLUME      L**3       RATES FOR THIS TIME STEP      L**3/T          PACKAGE NAME    
     ------------------                 ------------------------                     ----------------

           IN:                                      IN:
           ---                                      ---
              STO-SS =    10584993.7653                STO-SS =       61728.1455     STORAGE                          
              STO-SY =      400722.2537                STO-SY =        2332.4259     STORAGE                          
                 WEL =           0.0000                   WEL =           0.0000     WEL-1                            
                RCHA =    66250818.9469                  RCHA =        4275.0000     RCH-1                            
                 CHD =           0.0000                   CHD =           0.0000     CHD-FROM-IBOUND                  

            TOTAL IN =    77236534.9660              TOTAL IN =       68335.5715

          OUT:                                     OUT:
          ----                                     ----
              STO-SS =    45065158.4270                STO-SS =           0.0000     STORAGE                          
              STO-SY =     1649632.5699                STO-SY =           0.0000     STORAGE                          
                 WEL =     4105351.7984                   WEL =       20000.0000     WEL-1                            
                RCHA =           0.0000                  RCHA =           0.0000     RCH-1                            
                 CHD =    26416398.4569                   CHD =       48335.5716     CHD-FROM-IBOUND                  

           TOTAL OUT =    77236541.2523             TOTAL OUT =       68335.5716

            IN - OUT =          -6.2863              IN - OUT =      -1.3135E-04

 PERCENT DISCREPANCY =          -0.00     PERCENT DISCREPANCY =          -0.00




         TIME SUMMARY AT END OF TIME STEP    7 IN STRESS PERIOD   20
                    SECONDS     MINUTES      HOURS       DAYS        YEARS
                    -----------------------------------------------------------
   TIME STEP LENGTH 4.84734E+05  8078.9      134.65      5.6103     1.53603E-02
 STRESS PERIOD TIME 2.09672E+06  34945.      582.42      24.268     6.64410E-02
         TOTAL TIME 4.93575E+07 8.22625E+05  13710.      571.27      1.5640    


end timestep


start timestep kper="20" kstp="8" mode="normal"

 UBDSV1 SAVING     FLOW-JA-FACE ON UNIT   1015 AT TIME STEP      8, STRESS PERIOD     20
 UBDSV06 SAVING              WEL IN MODEL MUMODEL          PACKAGE MUMODEL         CONNECTED TO MODEL MUMODEL          PACKAGE WEL-1            ON UNIT   1015 AT TIME STEP      8, STRESS PERIOD     20
 UBDSV06 SAVING             RCHA IN MODEL MUMODEL          PACKAGE MUMODEL         CONNECTED TO MODEL MUMODEL          PACKAGE RCH-1            ON UNIT   1015 AT TIME STEP      8, STRESS PERIOD     20

 WEL PACKAGE (WEL-1) FLOW RATES   PERIOD     20   STEP        8
 -----------------------------------------------
   NUMBER   CELLID                    RATE      
 -----------------------------------------------
     1      (1,5,5)              -20000.000     
     2      (1,11,5)              0.0000000     
     3      (1,5,5)               0.0000000     
 -----------------------------------------------




 CHD PACKAGE (CHD-FROM-IBOUND) FLOW RATES   PERIOD     20   STEP        8
 -----------------------------------------------
   NUMBER   CELLID                    RATE      
 -----------------------------------------------
     1      (1,1,1)              -2680.6373     
     2      (1,1,2)              -2680.5942     
     3      (1,1,3)              -2680.2441     
     4      (1,1,4)              -2678.3132     
     5      (1,1,5)              -2673.0688     
     6      (1,1,6)              -2678.3112     
     7      (1,1,7)              -2680.2404     
     8      (1,1,8)              -2680.5893     
     9      (1,1,9)              -2680.6319     
     10     (1,21,1)             -2680.6383     
     11     (1,21,2)             -2680.6395     
     12     (1,21,3)             -2680.6410     
     13     (1,21,4)             -2680.6423     
     14     (1,21,5)             -2680.6434     
     15     (1,21,6)             -2680.6443     
     16     (1,21,7)             -2680.6444     
     17     (1,21,8)             -2680.6434     
     18     (1,21,9)             -2680.6420     
 -----------------------------------------------




 HEAD WILL BE SAVED ON UNIT 1016 AT END OF TIME STEP    8, STRESS PERIOD   20


  VOLUME BUDGET FOR ENTIRE MODEL AT END OF TIME STEP    8, STRESS PERIOD  20
  ---------------------------------------------------------------------------------------------------

     CUMULATIVE VOLUME      L**3       RATES FOR THIS TIME STEP      L**3/T          PACKAGE NAME    
     ------------------                 ------------------------                     ----------------

           IN:                                      IN:
           ---                                      ---
              STO-SS =    10999945.6120                STO-SS =       61634.9631     STORAGE                          
              STO-SY =      416398.3057                STO-SY =        2328.4458     STORAGE                          
                 WEL =           0.0000                   WEL =           0.0000     WEL-1                            
                RCHA =    66279600.0000                  RCHA =        4275.0000     RCH-1                            
                 CHD =           0.0000                   CHD =           0.0000     CHD-FROM-IBOUND                  

            TOTAL IN =    77695943.9178              TOTAL IN =       68238.4089

          OUT:                                     OUT:
          ----                                     ----
              STO-SS =    45065158.4270                STO-SS =           0.0000     STORAGE                          
              STO-SY =     1649632.5699                STO-SY =           0.0000     STORAGE                          
                 WEL =     4240000.0000                   WEL =       20000.0000     WEL-1                            
                RCHA =           0.0000                  RCHA =           0.0000     RCH-1                            
                 CHD =    26741159.2086                   CHD =       48238.4091     CHD-FROM-IBOUND                  

           TOTAL OUT =    77695950.2055             TOTAL OUT =       68238.4091

            IN - OUT =          -6.2878              IN - OUT =      -2.1464E-04

 PERCENT DISCREPANCY =          -0.00     PERCENT DISCREPANCY =          -0.00




         TIME SUMMARY AT END OF TIME STEP    8 IN STRESS PERIOD   20
                    SECONDS     MINUTES      HOURS       DAYS        YEARS
                    -----------------------------------------------------------
   TIME STEP LENGTH 5.81680E+05  9694.7      161.58      6.7324     1.84323E-02
 STRESS PERIOD TIME 2.67840E+06  44640.      744.00      31.000     8.48734E-02
         TOTAL TIME 4.99392E+07 8.32320E+05  13872.      578.00      1.5825    


end timestep


start timestep kper="21" kstp="1" mode="normal"


 OUTPUT CONTROL FOR STRESS PERIOD 21 IS REPEATED USING SETTINGS FROM A PREVIOUS STRESS PERIOD.


 STRESS PERIOD 21 IS TRANSIENT


 REUSING WELS FROM LAST STRESS PERIOD

 REUSING RCHS FROM LAST STRESS PERIOD

 REUSING CHDS FROM LAST STRESS PERIOD
 UBDSV1 SAVING     FLOW-JA-FACE ON UNIT   1015 AT TIME STEP      1, STRESS PERIOD     21
 UBDSV06 SAVING              WEL IN MODEL MUMODEL          PACKAGE MUMODEL         CONNECTED TO MODEL MUMODEL          PACKAGE WEL-1            ON UNIT   1015 AT TIME STEP      1, STRESS PERIOD     21
 UBDSV06 SAVING             RCHA IN MODEL MUMODEL          PACKAGE MUMODEL         CONNECTED TO MODEL MUMODEL          PACKAGE RCH-1            ON UNIT   1015 AT TIME STEP      1, STRESS PERIOD     21

 WEL PACKAGE (WEL-1) FLOW RATES   PERIOD     21   STEP        1
 -----------------------------------------------
   NUMBER   CELLID                    RATE      
 -----------------------------------------------
     1      (1,5,5)              -20000.000     
     2      (1,11,5)              0.0000000     
     3      (1,5,5)               0.0000000     
 -----------------------------------------------




 CHD PACKAGE (CHD-FROM-IBOUND) FLOW RATES   PERIOD     21   STEP        1
 -----------------------------------------------
   NUMBER   CELLID                    RATE      
 -----------------------------------------------
     1      (1,1,1)              -2679.1579     
     2      (1,1,2)              -2679.1129     
     3      (1,1,3)              -2678.7492     
     4      (1,1,4)              -2676.7584     
     5      (1,1,5)              -2671.3952     
     6      (1,1,6)              -2676.7564     
     7      (1,1,7)              -2678.7455     
     8      (1,1,8)              -2679.1080     
     9      (1,1,9)              -2679.1526     
     10     (1,21,1)             -2679.1593     
     11     (1,21,2)             -2679.1605     
     12     (1,21,3)             -2679.1620     
     13     (1,21,4)             -2679.1632     
     14     (1,21,5)             -2679.1644     
     15     (1,21,6)             -2679.1652     
     16     (1,21,7)             -2679.1653     
     17     (1,21,8)             -2679.1643     
     18     (1,21,9)             -2679.1629     
 -----------------------------------------------




 HEAD WILL BE SAVED ON UNIT 1016 AT END OF TIME STEP    1, STRESS PERIOD   21


  VOLUME BUDGET FOR ENTIRE MODEL AT END OF TIME STEP    1, STRESS PERIOD  21
  ---------------------------------------------------------------------------------------------------

     CUMULATIVE VOLUME      L**3       RATES FOR THIS TIME STEP      L**3/T          PACKAGE NAME    
     ------------------                 ------------------------                     ----------------

           IN:                                      IN:
           ---                                      ---
              STO-SS =    11115701.6243                STO-SS =       61608.6536     STORAGE                          
              STO-SY =      420771.8955                STO-SY =        2327.7493     STORAGE                          
                 WEL =           0.0000                   WEL =           0.0000     WEL-1                            
                RCHA =    66287632.2637                  RCHA =        4275.0000     RCH-1                            
                 CHD =           0.0000                   CHD =           0.0000     CHD-FROM-IBOUND                  

            TOTAL IN =    77824105.7835              TOTAL IN =       68211.4029

          OUT:                                     OUT:
          ----                                     ----
              STO-SS =    45065158.4270                STO-SS =           0.0000     STORAGE                          
              STO-SY =     1649632.5699                STO-SY =           0.0000     STORAGE                          
                 WEL =     4277577.8419                   WEL =       20000.0000     WEL-1                            
                RCHA =           0.0000                  RCHA =           0.0000     RCH-1                            
                 CHD =    26831743.2326                   CHD =       48211.4030     CHD-FROM-IBOUND                  

           TOTAL OUT =    77824112.0714             TOTAL OUT =       68211.4030

            IN - OUT =          -6.2879              IN - OUT =      -6.9041E-05

 PERCENT DISCREPANCY =          -0.00     PERCENT DISCREPANCY =          -0.00




         TIME SUMMARY AT END OF TIME STEP    1 IN STRESS PERIOD   21
                    SECONDS     MINUTES      HOURS       DAYS        YEARS
                    -----------------------------------------------------------
   TIME STEP LENGTH 1.62336E+05  2705.6      45.093      1.8789     5.14413E-03
 STRESS PERIOD TIME 1.62336E+05  2705.6      45.093      1.8789     5.14413E-03
         TOTAL TIME 5.01015E+07 8.35026E+05  13917.      579.88      1.5876    


end timestep


start timestep kper="21" kstp="2" mode="normal"

 UBDSV1 SAVING     FLOW-JA-FACE ON UNIT   1015 AT TIME STEP      2, STRESS PERIOD     21
 UBDSV06 SAVING              WEL IN MODEL MUMODEL          PACKAGE MUMODEL         CONNECTED TO MODEL MUMODEL          PACKAGE WEL-1            ON UNIT   1015 AT TIME STEP      2, STRESS PERIOD     21
 UBDSV06 SAVING             RCHA IN MODEL MUMODEL          PACKAGE MUMODEL         CONNECTED TO MODEL MUMODEL          PACKAGE RCH-1            ON UNIT   1015 AT TIME STEP      2, STRESS PERIOD     21

 WEL PACKAGE (WEL-1) FLOW RATES   PERIOD     21   STEP        2
 -----------------------------------------------
   NUMBER   CELLID                    RATE      
 -----------------------------------------------
     1      (1,5,5)              -20000.000     
     2      (1,11,5)              0.0000000     
     3      (1,5,5)               0.0000000     
 -----------------------------------------------




 CHD PACKAGE (CHD-FROM-IBOUND) FLOW RATES   PERIOD     21   STEP        2
 -----------------------------------------------
   NUMBER   CELLID                    RATE      
 -----------------------------------------------
     1      (1,1,1)              -2677.3923     
     2      (1,1,2)              -2677.3447     
     3      (1,1,3)              -2676.9642     
     4      (1,1,4)              -2674.8998     
     5      (1,1,5)              -2669.3924     
     6      (1,1,6)              -2674.8979     
     7      (1,1,7)              -2676.9605     
     8      (1,1,8)              -2677.3398     
     9      (1,1,9)              -2677.3870     
     10     (1,21,1)             -2677.3940     
     11     (1,21,2)             -2677.3952     
     12     (1,21,3)             -2677.3967     
     13     (1,21,4)             -2677.3980     
     14     (1,21,5)             -2677.3991     
     15     (1,21,6)             -2677.4000     
     16     (1,21,7)             -2677.4001     
     17     (1,21,8)             -2677.3990     
     18     (1,21,9)             -2677.3977     
 -----------------------------------------------




 HEAD WILL BE SAVED ON UNIT 1016 AT END OF TIME STEP    2, STRESS PERIOD   21


  VOLUME BUDGET FOR ENTIRE MODEL AT END OF TIME STEP    2, STRESS PERIOD  21
  ---------------------------------------------------------------------------------------------------

     CUMULATIVE VOLUME      L**3       RATES FOR THIS TIME STEP      L**3/T          PACKAGE NAME    
     ------------------                 ------------------------                     ----------------

           IN:                                      IN:
           ---                                      ---
              STO-SS =    11254539.1311                STO-SS =       61577.7365     STORAGE                          
              STO-SY =      426017.2099                STO-SY =        2326.4217     STORAGE                          
                 WEL =           0.0000                   WEL =           0.0000     WEL-1                            
                RCHA =    66297270.9802                  RCHA =        4275.0000     RCH-1                            
                 CHD =           0.0000                   CHD =           0.0000     CHD-FROM-IBOUND                  

            TOTAL IN =    77977827.3212              TOTAL IN =       68179.1582

          OUT:                                     OUT:
          ----                                     ----
              STO-SS =    45065158.4270                STO-SS =           0.0000     STORAGE                          
              STO-SY =     1649632.5699                STO-SY =           0.0000     STORAGE                          
                 WEL =     4322671.2522                   WEL =       20000.0000     WEL-1                            
                RCHA =           0.0000                  RCHA =           0.0000     RCH-1                            
                 CHD =    26940371.3602                   CHD =       48179.1583     CHD-FROM-IBOUND                  

           TOTAL OUT =    77977833.6093             TOTAL OUT =       68179.1583

            IN - OUT =          -6.2882              IN - OUT =      -1.2670E-04

 PERCENT DISCREPANCY =          -0.00     PERCENT DISCREPANCY =          -0.00




         TIME SUMMARY AT END OF TIME STEP    2 IN STRESS PERIOD   21
                    SECONDS     MINUTES      HOURS       DAYS        YEARS
                    -----------------------------------------------------------
   TIME STEP LENGTH 1.94804E+05  3246.7      54.112      2.2547     6.17295E-03
 STRESS PERIOD TIME 3.57140E+05  5952.3      99.206      4.1336     1.13171E-02
         TOTAL TIME 5.02963E+07 8.38272E+05  13971.      582.13      1.5938    


end timestep


start timestep kper="21" kstp="3" mode="normal"

 UBDSV1 SAVING     FLOW-JA-FACE ON UNIT   1015 AT TIME STEP      3, STRESS PERIOD     21
 UBDSV06 SAVING              WEL IN MODEL MUMODEL          PACKAGE MUMODEL         CONNECTED TO MODEL MUMODEL          PACKAGE WEL-1            ON UNIT   1015 AT TIME STEP      3, STRESS PERIOD     21
 UBDSV06 SAVING             RCHA IN MODEL MUMODEL          PACKAGE MUMODEL         CONNECTED TO MODEL MUMODEL          PACKAGE RCH-1            ON UNIT   1015 AT TIME STEP      3, STRESS PERIOD     21

 WEL PACKAGE (WEL-1) FLOW RATES   PERIOD     21   STEP        3
 -----------------------------------------------
   NUMBER   CELLID                    RATE      
 -----------------------------------------------
     1      (1,5,5)              -20000.000     
     2      (1,11,5)              0.0000000     
     3      (1,5,5)               0.0000000     
 -----------------------------------------------




 CHD PACKAGE (CHD-FROM-IBOUND) FLOW RATES   PERIOD     21   STEP        3
 -----------------------------------------------
   NUMBER   CELLID                    RATE      
 -----------------------------------------------
     1      (1,1,1)              -2675.2871     
     2      (1,1,2)              -2675.2363     
     3      (1,1,3)              -2674.8347     
     4      (1,1,4)              -2672.6796     
     5      (1,1,5)              -2666.9966     
     6      (1,1,6)              -2672.6777     
     7      (1,1,7)              -2674.8310     
     8      (1,1,8)              -2675.2314     
     9      (1,1,9)              -2675.2817     
     10     (1,21,1)             -2675.2893     
     11     (1,21,2)             -2675.2904     
     12     (1,21,3)             -2675.2919     
     13     (1,21,4)             -2675.2932     
     14     (1,21,5)             -2675.2943     
     15     (1,21,6)             -2675.2952     
     16     (1,21,7)             -2675.2953     
     17     (1,21,8)             -2675.2942     
     18     (1,21,9)             -2675.2929     
 -----------------------------------------------




 HEAD WILL BE SAVED ON UNIT 1016 AT END OF TIME STEP    3, STRESS PERIOD   21


  VOLUME BUDGET FOR ENTIRE MODEL AT END OF TIME STEP    3, STRESS PERIOD  21
  ---------------------------------------------------------------------------------------------------

     CUMULATIVE VOLUME      L**3       RATES FOR THIS TIME STEP      L**3/T          PACKAGE NAME    
     ------------------                 ------------------------                     ----------------

           IN:                                      IN:
           ---                                      ---
              STO-SS =    11421044.3504                STO-SS =       61540.8542     STORAGE                          
              STO-SY =      432307.3034                STO-SY =        2324.8384     STORAGE                          
                 WEL =           0.0000                   WEL =           0.0000     WEL-1                            
                RCHA =    66308837.4399                  RCHA =        4275.0000     RCH-1                            
                 CHD =           0.0000                   CHD =           0.0000     CHD-FROM-IBOUND                  

            TOTAL IN =    78162189.0936              TOTAL IN =       68140.6926

          OUT:                                     OUT:
          ----                                     ----
              STO-SS =    45065158.4270                STO-SS =           0.0000     STORAGE                          
              STO-SY =     1649632.5699                STO-SY =           0.0000     STORAGE                          
                 WEL =     4376783.3445                   WEL =       20000.0000     WEL-1                            
                RCHA =           0.0000                  RCHA =           0.0000     RCH-1                            
                 CHD =    27070621.0410                   CHD =       48140.6928     CHD-FROM-IBOUND                  

           TOTAL OUT =    78162195.3824             TOTAL OUT =       68140.6928

            IN - OUT =          -6.2888              IN - OUT =      -2.0939E-04

 PERCENT DISCREPANCY =          -0.00     PERCENT DISCREPANCY =          -0.00




         TIME SUMMARY AT END OF TIME STEP    3 IN STRESS PERIOD   21
                    SECONDS     MINUTES      HOURS       DAYS        YEARS
                    -----------------------------------------------------------
   TIME STEP LENGTH 2.33764E+05  3896.1      64.935      2.7056     7.40754E-03
 STRESS PERIOD TIME 5.90904E+05  9848.4      164.14      6.8392     1.87246E-02
         TOTAL TIME 5.05301E+07 8.42168E+05  14036.      584.84      1.6012    


end timestep


start timestep kper="21" kstp="4" mode="normal"

 UBDSV1 SAVING     FLOW-JA-FACE ON UNIT   1015 AT TIME STEP      4, STRESS PERIOD     21
 UBDSV06 SAVING              WEL IN MODEL MUMODEL          PACKAGE MUMODEL         CONNECTED TO MODEL MUMODEL          PACKAGE WEL-1            ON UNIT   1015 AT TIME STEP      4, STRESS PERIOD     21
 UBDSV06 SAVING             RCHA IN MODEL MUMODEL          PACKAGE MUMODEL         CONNECTED TO MODEL MUMODEL          PACKAGE RCH-1            ON UNIT   1015 AT TIME STEP      4, STRESS PERIOD     21

 WEL PACKAGE (WEL-1) FLOW RATES   PERIOD     21   STEP        4
 -----------------------------------------------
   NUMBER   CELLID                    RATE      
 -----------------------------------------------
     1      (1,5,5)              -20000.000     
     2      (1,11,5)              0.0000000     
     3      (1,5,5)               0.0000000     
 -----------------------------------------------




 CHD PACKAGE (CHD-FROM-IBOUND) FLOW RATES   PERIOD     21   STEP        4
 -----------------------------------------------
   NUMBER   CELLID                    RATE      
 -----------------------------------------------
     1      (1,1,1)              -2672.7800     
     2      (1,1,2)              -2672.7251     
     3      (1,1,3)              -2672.2971     
     4      (1,1,4)              -2670.0295     
     5      (1,1,5)              -2664.1320     
     6      (1,1,6)              -2670.0276     
     7      (1,1,7)              -2672.2935     
     8      (1,1,8)              -2672.7203     
     9      (1,1,9)              -2672.7747     
     10     (1,21,1)             -2672.7828     
     11     (1,21,2)             -2672.7839     
     12     (1,21,3)             -2672.7854     
     13     (1,21,4)             -2672.7867     
     14     (1,21,5)             -2672.7878     
     15     (1,21,6)             -2672.7887     
     16     (1,21,7)             -2672.7887     
     17     (1,21,8)             -2672.7877     
     18     (1,21,9)             -2672.7864     
 -----------------------------------------------




 HEAD WILL BE SAVED ON UNIT 1016 AT END OF TIME STEP    4, STRESS PERIOD   21


  VOLUME BUDGET FOR ENTIRE MODEL AT END OF TIME STEP    4, STRESS PERIOD  21
  ---------------------------------------------------------------------------------------------------

     CUMULATIVE VOLUME      L**3       RATES FOR THIS TIME STEP      L**3/T          PACKAGE NAME    
     ------------------                 ------------------------                     ----------------

           IN:                                      IN:
           ---                                      ---
              STO-SS =    11620707.9224                STO-SS =       61496.9050     STORAGE                          
              STO-SY =      439849.2927                STO-SY =        2322.9525     STORAGE                          
                 WEL =           0.0000                   WEL =           0.0000     WEL-1                            
                RCHA =    66322717.1916                  RCHA =        4275.0000     RCH-1                            
                 CHD =           0.0000                   CHD =           0.0000     CHD-FROM-IBOUND                  

            TOTAL IN =    78383274.4066              TOTAL IN =       68094.8575

          OUT:                                     OUT:
          ----                                     ----
              STO-SS =    45065158.4270                STO-SS =           0.0000     STORAGE                          
              STO-SY =     1649632.5699                STO-SY =           0.0000     STORAGE                          
                 WEL =     4441717.8553                   WEL =       20000.0000     WEL-1                            
                RCHA =           0.0000                  RCHA =           0.0000     RCH-1                            
                 CHD =    27226771.8443                   CHD =       48094.8579     CHD-FROM-IBOUND                  

           TOTAL OUT =    78383280.6965             TOTAL OUT =       68094.8579

            IN - OUT =          -6.2899              IN - OUT =      -3.5068E-04

 PERCENT DISCREPANCY =          -0.00     PERCENT DISCREPANCY =          -0.00




         TIME SUMMARY AT END OF TIME STEP    4 IN STRESS PERIOD   21
                    SECONDS     MINUTES      HOURS       DAYS        YEARS
                    -----------------------------------------------------------
   TIME STEP LENGTH 2.80517E+05  4675.3      77.921      3.2467     8.88905E-03
 STRESS PERIOD TIME 8.71421E+05  14524.      242.06      10.086     2.76137E-02
         TOTAL TIME 5.08106E+07 8.46844E+05  14114.      588.09      1.6101    


end timestep


start timestep kper="21" kstp="5" mode="normal"

 UBDSV1 SAVING     FLOW-JA-FACE ON UNIT   1015 AT TIME STEP      5, STRESS PERIOD     21
 UBDSV06 SAVING              WEL IN MODEL MUMODEL          PACKAGE MUMODEL         CONNECTED TO MODEL MUMODEL          PACKAGE WEL-1            ON UNIT   1015 AT TIME STEP      5, STRESS PERIOD     21
 UBDSV06 SAVING             RCHA IN MODEL MUMODEL          PACKAGE MUMODEL         CONNECTED TO MODEL MUMODEL          PACKAGE RCH-1            ON UNIT   1015 AT TIME STEP      5, STRESS PERIOD     21

 WEL PACKAGE (WEL-1) FLOW RATES   PERIOD     21   STEP        5
 -----------------------------------------------
   NUMBER   CELLID                    RATE      
 -----------------------------------------------
     1      (1,5,5)              -20000.000     
     2      (1,11,5)              0.0000000     
     3      (1,5,5)               0.0000000     
 -----------------------------------------------




 CHD PACKAGE (CHD-FROM-IBOUND) FLOW RATES   PERIOD     21   STEP        5
 -----------------------------------------------
   NUMBER   CELLID                    RATE      
 -----------------------------------------------
     1      (1,1,1)              -2669.7987     
     2      (1,1,2)              -2669.7386     
     3      (1,1,3)              -2669.2771     
     4      (1,1,4)              -2666.8691     
     5      (1,1,5)              -2660.7092     
     6      (1,1,6)              -2666.8672     
     7      (1,1,7)              -2669.2734     
     8      (1,1,8)              -2669.7338     
     9      (1,1,9)              -2669.7934     
     10     (1,21,1)             -2669.8023     
     11     (1,21,2)             -2669.8034     
     12     (1,21,3)             -2669.8049     
     13     (1,21,4)             -2669.8062     
     14     (1,21,5)             -2669.8073     
     15     (1,21,6)             -2669.8081     
     16     (1,21,7)             -2669.8082     
     17     (1,21,8)             -2669.8072     
     18     (1,21,9)             -2669.8058     
 -----------------------------------------------




 HEAD WILL BE SAVED ON UNIT 1016 AT END OF TIME STEP    5, STRESS PERIOD   21


  VOLUME BUDGET FOR ENTIRE MODEL AT END OF TIME STEP    5, STRESS PERIOD  21
  ---------------------------------------------------------------------------------------------------

     CUMULATIVE VOLUME      L**3       RATES FOR THIS TIME STEP      L**3/T          PACKAGE NAME    
     ------------------                 ------------------------                     ----------------

           IN:                                      IN:
           ---                                      ---
              STO-SS =    11860100.4416                STO-SS =       61444.6043     STORAGE                          
              STO-SY =      448890.9413                STO-SY =        2320.7096     STORAGE                          
                 WEL =           0.0000                   WEL =           0.0000     WEL-1                            
                RCHA =    66339372.8936                  RCHA =        4275.0000     RCH-1                            
                 CHD =           0.0000                   CHD =           0.0000     CHD-FROM-IBOUND                  

            TOTAL IN =    78648364.2765              TOTAL IN =       68040.3139

          OUT:                                     OUT:
          ----                                     ----
              STO-SS =    45065158.4270                STO-SS =           0.0000     STORAGE                          
              STO-SY =     1649632.5699                STO-SY =           0.0000     STORAGE                          
                 WEL =     4519639.2682                   WEL =       20000.0000     WEL-1                            
                RCHA =           0.0000                  RCHA =           0.0000     RCH-1                            
                 CHD =    27413940.3014                   CHD =       48040.3139     CHD-FROM-IBOUND                  

           TOTAL OUT =    78648370.5665             TOTAL OUT =       68040.3139

            IN - OUT =          -6.2900              IN - OUT =      -4.0480E-05

 PERCENT DISCREPANCY =          -0.00     PERCENT DISCREPANCY =          -0.00




         TIME SUMMARY AT END OF TIME STEP    5 IN STRESS PERIOD   21
                    SECONDS     MINUTES      HOURS       DAYS        YEARS
                    -----------------------------------------------------------
   TIME STEP LENGTH 3.36621E+05  5610.3      93.506      3.8961     1.06669E-02
 STRESS PERIOD TIME 1.20804E+06  20134.      335.57      13.982     3.82805E-02
         TOTAL TIME 5.11472E+07 8.52454E+05  14208.      591.98      1.6208    


end timestep


start timestep kper="21" kstp="6" mode="normal"

 UBDSV1 SAVING     FLOW-JA-FACE ON UNIT   1015 AT TIME STEP      6, STRESS PERIOD     21
 UBDSV06 SAVING              WEL IN MODEL MUMODEL          PACKAGE MUMODEL         CONNECTED TO MODEL MUMODEL          PACKAGE WEL-1            ON UNIT   1015 AT TIME STEP      6, STRESS PERIOD     21
 UBDSV06 SAVING             RCHA IN MODEL MUMODEL          PACKAGE MUMODEL         CONNECTED TO MODEL MUMODEL          PACKAGE RCH-1            ON UNIT   1015 AT TIME STEP      6, STRESS PERIOD     21

 WEL PACKAGE (WEL-1) FLOW RATES   PERIOD     21   STEP        6
 -----------------------------------------------
   NUMBER   CELLID                    RATE      
 -----------------------------------------------
     1      (1,5,5)              -20000.000     
     2      (1,11,5)              0.0000000     
     3      (1,5,5)               0.0000000     
 -----------------------------------------------




 CHD PACKAGE (CHD-FROM-IBOUND) FLOW RATES   PERIOD     21   STEP        6
 -----------------------------------------------
   NUMBER   CELLID                    RATE      
 -----------------------------------------------
     1      (1,1,1)              -2666.2596     
     2      (1,1,2)              -2666.1927     
     3      (1,1,3)              -2665.6883     
     4      (1,1,4)              -2663.1042     
     5      (1,1,5)              -2656.6222     
     6      (1,1,6)              -2663.1023     
     7      (1,1,7)              -2665.6847     
     8      (1,1,8)              -2666.1879     
     9      (1,1,9)              -2666.2544     
     10     (1,21,1)             -2666.2643     
     11     (1,21,2)             -2666.2654     
     12     (1,21,3)             -2666.2668     
     13     (1,21,4)             -2666.2681     
     14     (1,21,5)             -2666.2692     
     15     (1,21,6)             -2666.2701     
     16     (1,21,7)             -2666.2701     
     17     (1,21,8)             -2666.2691     
     18     (1,21,9)             -2666.2678     
 -----------------------------------------------




 HEAD WILL BE SAVED ON UNIT 1016 AT END OF TIME STEP    6, STRESS PERIOD   21


  VOLUME BUDGET FOR ENTIRE MODEL AT END OF TIME STEP    6, STRESS PERIOD  21
  ---------------------------------------------------------------------------------------------------

     CUMULATIVE VOLUME      L**3       RATES FOR THIS TIME STEP      L**3/T          PACKAGE NAME    
     ------------------                 ------------------------                     ----------------

           IN:                                      IN:
           ---                                      ---
              STO-SS =    12147080.9249                STO-SS =       61382.4605     STORAGE                          
              STO-SY =      459728.4690                STO-SY =        2318.0465     STORAGE                          
                 WEL =           0.0000                   WEL =           0.0000     WEL-1                            
                RCHA =    66359359.7360                  RCHA =        4275.0000     RCH-1                            
                 CHD =           0.0000                   CHD =           0.0000     CHD-FROM-IBOUND                  

            TOTAL IN =    78966169.1299              TOTAL IN =       67975.5071

          OUT:                                     OUT:
          ----                                     ----
              STO-SS =    45065158.4270                STO-SS =           0.0000     STORAGE                          
              STO-SY =     1649632.5699                STO-SY =           0.0000     STORAGE                          
                 WEL =     4613144.9638                   WEL =       20000.0000     WEL-1                            
                RCHA =           0.0000                  RCHA =           0.0000     RCH-1                            
                 CHD =    27638239.4596                   CHD =       47975.5071     CHD-FROM-IBOUND                  

           TOTAL OUT =    78966175.4203             TOTAL OUT =       67975.5071

            IN - OUT =          -6.2904              IN - OUT =      -6.8584E-05

 PERCENT DISCREPANCY =          -0.00     PERCENT DISCREPANCY =          -0.00




         TIME SUMMARY AT END OF TIME STEP    6 IN STRESS PERIOD   21
                    SECONDS     MINUTES      HOURS       DAYS        YEARS
                    -----------------------------------------------------------
   TIME STEP LENGTH 4.03945E+05  6732.4      112.21      4.6753     1.28002E-02
 STRESS PERIOD TIME 1.61199E+06  26866.      447.77      18.657     5.10808E-02
         TOTAL TIME 5.15512E+07 8.59186E+05  14320.      596.66      1.6336    


end timestep


start timestep kper="21" kstp="7" mode="normal"

 UBDSV1 SAVING     FLOW-JA-FACE ON UNIT   1015 AT TIME STEP      7, STRESS PERIOD     21
 UBDSV06 SAVING              WEL IN MODEL MUMODEL          PACKAGE MUMODEL         CONNECTED TO MODEL MUMODEL          PACKAGE WEL-1            ON UNIT   1015 AT TIME STEP      7, STRESS PERIOD     21
 UBDSV06 SAVING             RCHA IN MODEL MUMODEL          PACKAGE MUMODEL         CONNECTED TO MODEL MUMODEL          PACKAGE RCH-1            ON UNIT   1015 AT TIME STEP      7, STRESS PERIOD     21

 WEL PACKAGE (WEL-1) FLOW RATES   PERIOD     21   STEP        7
 -----------------------------------------------
   NUMBER   CELLID                    RATE      
 -----------------------------------------------
     1      (1,5,5)              -20000.000     
     2      (1,11,5)              0.0000000     
     3      (1,5,5)               0.0000000     
 -----------------------------------------------




 CHD PACKAGE (CHD-FROM-IBOUND) FLOW RATES   PERIOD     21   STEP        7
 -----------------------------------------------
   NUMBER   CELLID                    RATE      
 -----------------------------------------------
     1      (1,1,1)              -2662.0669     
     2      (1,1,2)              -2661.9910     
     3      (1,1,3)              -2661.4310     
     4      (1,1,4)              -2658.6243     
     5      (1,1,5)              -2651.7458     
     6      (1,1,6)              -2658.6224     
     7      (1,1,7)              -2661.4275     
     8      (1,1,8)              -2661.9862     
     9      (1,1,9)              -2662.0617     
     10     (1,21,1)             -2662.0730     
     11     (1,21,2)             -2662.0741     
     12     (1,21,3)             -2662.0755     
     13     (1,21,4)             -2662.0768     
     14     (1,21,5)             -2662.0779     
     15     (1,21,6)             -2662.0787     
     16     (1,21,7)             -2662.0788     
     17     (1,21,8)             -2662.0778     
     18     (1,21,9)             -2662.0765     
 -----------------------------------------------




 HEAD WILL BE SAVED ON UNIT 1016 AT END OF TIME STEP    7, STRESS PERIOD   21


  VOLUME BUDGET FOR ENTIRE MODEL AT END OF TIME STEP    7, STRESS PERIOD  21
  ---------------------------------------------------------------------------------------------------

     CUMULATIVE VOLUME      L**3       RATES FOR THIS TIME STEP      L**3/T          PACKAGE NAME    
     ------------------                 ------------------------                     ----------------

           IN:                                      IN:
           ---                                      ---
              STO-SS =    12491043.9909                STO-SS =       61308.7549     STORAGE                          
              STO-SY =      472715.7993                STO-SY =        2314.8911     STORAGE                          
                 WEL =           0.0000                   WEL =           0.0000     WEL-1                            
                RCHA =    66383343.9469                  RCHA =        4275.0000     RCH-1                            
                 CHD =           0.0000                   CHD =           0.0000     CHD-FROM-IBOUND                  

            TOTAL IN =    79347103.7371              TOTAL IN =       67898.6460

          OUT:                                     OUT:
          ----                                     ----
              STO-SS =    45065158.4270                STO-SS =           0.0000     STORAGE                          
              STO-SY =     1649632.5699                STO-SY =           0.0000     STORAGE                          
                 WEL =     4725351.7984                   WEL =       20000.0000     WEL-1                            
                RCHA =           0.0000                  RCHA =           0.0000     RCH-1                            
                 CHD =    27906967.2328                   CHD =       47898.6461     CHD-FROM-IBOUND                  

           TOTAL OUT =    79347110.0281             TOTAL OUT =       67898.6461

            IN - OUT =          -6.2910              IN - OUT =      -1.1405E-04

 PERCENT DISCREPANCY =          -0.00     PERCENT DISCREPANCY =          -0.00




         TIME SUMMARY AT END OF TIME STEP    7 IN STRESS PERIOD   21
                    SECONDS     MINUTES      HOURS       DAYS        YEARS
                    -----------------------------------------------------------
   TIME STEP LENGTH 4.84734E+05  8078.9      134.65      5.6103     1.53603E-02
 STRESS PERIOD TIME 2.09672E+06  34945.      582.42      24.268     6.64410E-02
         TOTAL TIME 5.20359E+07 8.67265E+05  14454.      602.27      1.6489    


end timestep


start timestep kper="21" kstp="8" mode="normal"

 UBDSV1 SAVING     FLOW-JA-FACE ON UNIT   1015 AT TIME STEP      8, STRESS PERIOD     21
 UBDSV06 SAVING              WEL IN MODEL MUMODEL          PACKAGE MUMODEL         CONNECTED TO MODEL MUMODEL          PACKAGE WEL-1            ON UNIT   1015 AT TIME STEP      8, STRESS PERIOD     21
 UBDSV06 SAVING             RCHA IN MODEL MUMODEL          PACKAGE MUMODEL         CONNECTED TO MODEL MUMODEL          PACKAGE RCH-1            ON UNIT   1015 AT TIME STEP      8, STRESS PERIOD     21

 WEL PACKAGE (WEL-1) FLOW RATES   PERIOD     21   STEP        8
 -----------------------------------------------
   NUMBER   CELLID                    RATE      
 -----------------------------------------------
     1      (1,5,5)              -20000.000     
     2      (1,11,5)              0.0000000     
     3      (1,5,5)               0.0000000     
 -----------------------------------------------




 CHD PACKAGE (CHD-FROM-IBOUND) FLOW RATES   PERIOD     21   STEP        8
 -----------------------------------------------
   NUMBER   CELLID                    RATE      
 -----------------------------------------------
     1      (1,1,1)              -2657.1117     
     2      (1,1,2)              -2657.0236     
     3      (1,1,3)              -2656.3910     
     4      (1,1,4)              -2653.3008     
     5      (1,1,5)              -2645.9324     
     6      (1,1,6)              -2653.2989     
     7      (1,1,7)              -2656.3875     
     8      (1,1,8)              -2657.0189     
     9      (1,1,9)              -2657.1065     
     10     (1,21,1)             -2657.1197     
     11     (1,21,2)             -2657.1208     
     12     (1,21,3)             -2657.1222     
     13     (1,21,4)             -2657.1235     
     14     (1,21,5)             -2657.1246     
     15     (1,21,6)             -2657.1254     
     16     (1,21,7)             -2657.1255     
     17     (1,21,8)             -2657.1245     
     18     (1,21,9)             -2657.1232     
 -----------------------------------------------




 HEAD WILL BE SAVED ON UNIT 1016 AT END OF TIME STEP    8, STRESS PERIOD   21


  VOLUME BUDGET FOR ENTIRE MODEL AT END OF TIME STEP    8, STRESS PERIOD  21
  ---------------------------------------------------------------------------------------------------

     CUMULATIVE VOLUME      L**3       RATES FOR THIS TIME STEP      L**3/T          PACKAGE NAME    
     ------------------                 ------------------------                     ----------------

           IN:                                      IN:
           ---                                      ---
              STO-SS =    12903212.3632                STO-SS =       61221.5191     STORAGE                          
              STO-SY =      488275.4858                STO-SY =        2311.1614     STORAGE                          
                 WEL =           0.0000                   WEL =           0.0000     WEL-1                            
                RCHA =    66412125.0000                  RCHA =        4275.0000     RCH-1                            
                 CHD =           0.0000                   CHD =           0.0000     CHD-FROM-IBOUND                  

            TOTAL IN =    79803612.8490              TOTAL IN =       67807.6805

          OUT:                                     OUT:
          ----                                     ----
              STO-SS =    45065158.4270                STO-SS =           0.0000     STORAGE                          
              STO-SY =     1649632.5699                STO-SY =           0.0000     STORAGE                          
                 WEL =     4860000.0000                   WEL =       20000.0000     WEL-1                            
                RCHA =           0.0000                  RCHA =           0.0000     RCH-1                            
                 CHD =    28228828.1443                   CHD =       47807.6807     CHD-FROM-IBOUND                  

           TOTAL OUT =    79803619.1412             TOTAL OUT =       67807.6807

            IN - OUT =          -6.2923              IN - OUT =      -1.8638E-04

 PERCENT DISCREPANCY =          -0.00     PERCENT DISCREPANCY =          -0.00




         TIME SUMMARY AT END OF TIME STEP    8 IN STRESS PERIOD   21
                    SECONDS     MINUTES      HOURS       DAYS        YEARS
                    -----------------------------------------------------------
   TIME STEP LENGTH 5.81680E+05  9694.7      161.58      6.7324     1.84323E-02
 STRESS PERIOD TIME 2.67840E+06  44640.      744.00      31.000     8.48734E-02
         TOTAL TIME 5.26176E+07 8.76960E+05  14616.      609.00      1.6674    


end timestep


start timestep kper="22" kstp="1" mode="normal"


 OUTPUT CONTROL FOR STRESS PERIOD 22 IS REPEATED USING SETTINGS FROM A PREVIOUS STRESS PERIOD.


 STRESS PERIOD 22 IS TRANSIENT


 REUSING WELS FROM LAST STRESS PERIOD

 REUSING RCHS FROM LAST STRESS PERIOD

 REUSING CHDS FROM LAST STRESS PERIOD
 UBDSV1 SAVING     FLOW-JA-FACE ON UNIT   1015 AT TIME STEP      1, STRESS PERIOD     22
 UBDSV06 SAVING              WEL IN MODEL MUMODEL          PACKAGE MUMODEL         CONNECTED TO MODEL MUMODEL          PACKAGE WEL-1            ON UNIT   1015 AT TIME STEP      1, STRESS PERIOD     22
 UBDSV06 SAVING             RCHA IN MODEL MUMODEL          PACKAGE MUMODEL         CONNECTED TO MODEL MUMODEL          PACKAGE RCH-1            ON UNIT   1015 AT TIME STEP      1, STRESS PERIOD     22

 WEL PACKAGE (WEL-1) FLOW RATES   PERIOD     22   STEP        1
 -----------------------------------------------
   NUMBER   CELLID                    RATE      
 -----------------------------------------------
     1      (1,5,5)              -20000.000     
     2      (1,11,5)              0.0000000     
     3      (1,5,5)               0.0000000     
 -----------------------------------------------




 CHD PACKAGE (CHD-FROM-IBOUND) FLOW RATES   PERIOD     22   STEP        1
 -----------------------------------------------
   NUMBER   CELLID                    RATE      
 -----------------------------------------------
     1      (1,1,1)              -2655.7788     
     2      (1,1,2)              -2655.6874     
     3      (1,1,3)              -2655.0346     
     4      (1,1,4)              -2651.8666     
     5      (1,1,5)              -2644.3648     
     6      (1,1,6)              -2651.8647     
     7      (1,1,7)              -2655.0311     
     8      (1,1,8)              -2655.6826     
     9      (1,1,9)              -2655.7736     
     10     (1,21,1)             -2655.7874     
     11     (1,21,2)             -2655.7885     
     12     (1,21,3)             -2655.7899     
     13     (1,21,4)             -2655.7911     
     14     (1,21,5)             -2655.7922     
     15     (1,21,6)             -2655.7930     
     16     (1,21,7)             -2655.7931     
     17     (1,21,8)             -2655.7921     
     18     (1,21,9)             -2655.7908     
 -----------------------------------------------




 HEAD WILL BE SAVED ON UNIT 1016 AT END OF TIME STEP    1, STRESS PERIOD   22


  VOLUME BUDGET FOR ENTIRE MODEL AT END OF TIME STEP    1, STRESS PERIOD  22
  ---------------------------------------------------------------------------------------------------

     CUMULATIVE VOLUME      L**3       RATES FOR THIS TIME STEP      L**3/T          PACKAGE NAME    
     ------------------                 ------------------------                     ----------------

           IN:                                      IN:
           ---                                      ---
              STO-SS =    13014487.0385                STO-SS =       61197.6768     STORAGE                          
              STO-SY =      492476.6742                STO-SY =        2310.5255     STORAGE                          
                 WEL =           0.0000                   WEL =           0.0000     WEL-1                            
                RCHA =    66419898.1584                  RCHA =        4275.0000     RCH-1                            
                 CHD =           0.0000                   CHD =           0.0000     CHD-FROM-IBOUND                  

            TOTAL IN =    79926861.8711              TOTAL IN =       67783.2022

          OUT:                                     OUT:
          ----                                     ----
              STO-SS =    45065158.4270                STO-SS =           0.0000     STORAGE                          
              STO-SY =     1649632.5699                STO-SY =           0.0000     STORAGE                          
                 WEL =     4896365.6534                   WEL =       20000.0000     WEL-1                            
                RCHA =           0.0000                  RCHA =           0.0000     RCH-1                            
                 CHD =    28315711.5131                   CHD =       47783.2023     CHD-FROM-IBOUND                  

           TOTAL OUT =    79926868.1635             TOTAL OUT =       67783.2023

            IN - OUT =          -6.2924              IN - OUT =      -5.2754E-05

 PERCENT DISCREPANCY =          -0.00     PERCENT DISCREPANCY =          -0.00




         TIME SUMMARY AT END OF TIME STEP    1 IN STRESS PERIOD   22
                    SECONDS     MINUTES      HOURS       DAYS        YEARS
                    -----------------------------------------------------------
   TIME STEP LENGTH 1.57100E+05  2618.3      43.639      1.8183     4.97819E-03
 STRESS PERIOD TIME 1.57100E+05  2618.3      43.639      1.8183     4.97819E-03
         TOTAL TIME 5.27747E+07 8.79578E+05  14660.      610.82      1.6723    


end timestep


start timestep kper="22" kstp="2" mode="normal"

 UBDSV1 SAVING     FLOW-JA-FACE ON UNIT   1015 AT TIME STEP      2, STRESS PERIOD     22
 UBDSV06 SAVING              WEL IN MODEL MUMODEL          PACKAGE MUMODEL         CONNECTED TO MODEL MUMODEL          PACKAGE WEL-1            ON UNIT   1015 AT TIME STEP      2, STRESS PERIOD     22
 UBDSV06 SAVING             RCHA IN MODEL MUMODEL          PACKAGE MUMODEL         CONNECTED TO MODEL MUMODEL          PACKAGE RCH-1            ON UNIT   1015 AT TIME STEP      2, STRESS PERIOD     22

 WEL PACKAGE (WEL-1) FLOW RATES   PERIOD     22   STEP        2
 -----------------------------------------------
   NUMBER   CELLID                    RATE      
 -----------------------------------------------
     1      (1,5,5)              -20000.000     
     2      (1,11,5)              0.0000000     
     3      (1,5,5)               0.0000000     
 -----------------------------------------------




 CHD PACKAGE (CHD-FROM-IBOUND) FLOW RATES   PERIOD     22   STEP        2
 -----------------------------------------------
   NUMBER   CELLID                    RATE      
 -----------------------------------------------
     1      (1,1,1)              -2654.1873     
     2      (1,1,2)              -2654.0917     
     3      (1,1,3)              -2653.4142     
     4      (1,1,4)              -2650.1510     
     5      (1,1,5)              -2642.4879     
     6      (1,1,6)              -2650.1492     
     7      (1,1,7)              -2653.4106     
     8      (1,1,8)              -2654.0869     
     9      (1,1,9)              -2654.1821     
     10     (1,21,1)             -2654.1965     
     11     (1,21,2)             -2654.1976     
     12     (1,21,3)             -2654.1990     
     13     (1,21,4)             -2654.2003     
     14     (1,21,5)             -2654.2014     
     15     (1,21,6)             -2654.2022     
     16     (1,21,7)             -2654.2022     
     17     (1,21,8)             -2654.2012     
     18     (1,21,9)             -2654.2000     
 -----------------------------------------------




 HEAD WILL BE SAVED ON UNIT 1016 AT END OF TIME STEP    2, STRESS PERIOD   22


  VOLUME BUDGET FOR ENTIRE MODEL AT END OF TIME STEP    2, STRESS PERIOD  22
  ---------------------------------------------------------------------------------------------------

     CUMULATIVE VOLUME      L**3       RATES FOR THIS TIME STEP      L**3/T          PACKAGE NAME    
     ------------------                 ------------------------                     ----------------

           IN:                                      IN:
           ---                                      ---
              STO-SS =    13147955.4721                STO-SS =       61169.6390     STORAGE                          
              STO-SY =      497515.4750                STO-SY =        2309.3223     STORAGE                          
                 WEL =           0.0000                   WEL =           0.0000     WEL-1                            
                RCHA =    66429225.9485                  RCHA =        4275.0000     RCH-1                            
                 CHD =           0.0000                   CHD =           0.0000     CHD-FROM-IBOUND                  

            TOTAL IN =    80074696.8956              TOTAL IN =       67753.9613

          OUT:                                     OUT:
          ----                                     ----
              STO-SS =    45065158.4270                STO-SS =           0.0000     STORAGE                          
              STO-SY =     1649632.5699                STO-SY =           0.0000     STORAGE                          
                 WEL =     4940004.4376                   WEL =       20000.0000     WEL-1                            
                RCHA =           0.0000                  RCHA =           0.0000     RCH-1                            
                 CHD =    28419907.7537                   CHD =       47753.9614     CHD-FROM-IBOUND                  

           TOTAL OUT =    80074703.1882             TOTAL OUT =       67753.9614

            IN - OUT =          -6.2926              IN - OUT =      -9.3193E-05

 PERCENT DISCREPANCY =          -0.00     PERCENT DISCREPANCY =          -0.00




         TIME SUMMARY AT END OF TIME STEP    2 IN STRESS PERIOD   22
                    SECONDS     MINUTES      HOURS       DAYS        YEARS
                    -----------------------------------------------------------
   TIME STEP LENGTH 1.88520E+05  3142.0      52.367      2.1819     5.97382E-03
 STRESS PERIOD TIME 3.45619E+05  5760.3      96.005      4.0002     1.09520E-02
         TOTAL TIME 5.29632E+07 8.82720E+05  14712.      613.00      1.6783    


end timestep


start timestep kper="22" kstp="3" mode="normal"

 UBDSV1 SAVING     FLOW-JA-FACE ON UNIT   1015 AT TIME STEP      3, STRESS PERIOD     22
 UBDSV06 SAVING              WEL IN MODEL MUMODEL          PACKAGE MUMODEL         CONNECTED TO MODEL MUMODEL          PACKAGE WEL-1            ON UNIT   1015 AT TIME STEP      3, STRESS PERIOD     22
 UBDSV06 SAVING             RCHA IN MODEL MUMODEL          PACKAGE MUMODEL         CONNECTED TO MODEL MUMODEL          PACKAGE RCH-1            ON UNIT   1015 AT TIME STEP      3, STRESS PERIOD     22

 WEL PACKAGE (WEL-1) FLOW RATES   PERIOD     22   STEP        3
 -----------------------------------------------
   NUMBER   CELLID                    RATE      
 -----------------------------------------------
     1      (1,5,5)              -20000.000     
     2      (1,11,5)              0.0000000     
     3      (1,5,5)               0.0000000     
 -----------------------------------------------




 CHD PACKAGE (CHD-FROM-IBOUND) FLOW RATES   PERIOD     22   STEP        3
 -----------------------------------------------
   NUMBER   CELLID                    RATE      
 -----------------------------------------------
     1      (1,1,1)              -2652.2887     
     2      (1,1,2)              -2652.1878     
     3      (1,1,3)              -2651.4797     
     4      (1,1,4)              -2648.0999     
     5      (1,1,5)              -2640.2410     
     6      (1,1,6)              -2648.0980     
     7      (1,1,7)              -2651.4761     
     8      (1,1,8)              -2652.1831     
     9      (1,1,9)              -2652.2835     
     10     (1,21,1)             -2652.2988     
     11     (1,21,2)             -2652.2999     
     12     (1,21,3)             -2652.3013     
     13     (1,21,4)             -2652.3025     
     14     (1,21,5)             -2652.3036     
     15     (1,21,6)             -2652.3044     
     16     (1,21,7)             -2652.3044     
     17     (1,21,8)             -2652.3035     
     18     (1,21,9)             -2652.3022     
 -----------------------------------------------




 HEAD WILL BE SAVED ON UNIT 1016 AT END OF TIME STEP    3, STRESS PERIOD   22


  VOLUME BUDGET FOR ENTIRE MODEL AT END OF TIME STEP    3, STRESS PERIOD  22
  ---------------------------------------------------------------------------------------------------

     CUMULATIVE VOLUME      L**3       RATES FOR THIS TIME STEP      L**3/T          PACKAGE NAME    
     ------------------                 ------------------------                     ----------------

           IN:                                      IN:
           ---                                      ---
              STO-SS =    13308029.9629                STO-SS =       61136.1713     STORAGE                          
              STO-SY =      503558.2780                STO-SY =        2307.8870     STORAGE                          
                 WEL =           0.0000                   WEL =           0.0000     WEL-1                            
                RCHA =    66440419.2967                  RCHA =        4275.0000     RCH-1                            
                 CHD =           0.0000                   CHD =           0.0000     CHD-FROM-IBOUND                  

            TOTAL IN =    80252007.5375              TOTAL IN =       67719.0583

          OUT:                                     OUT:
          ----                                     ----
              STO-SS =    45065158.4270                STO-SS =           0.0000     STORAGE                          
              STO-SY =     1649632.5699                STO-SY =           0.0000     STORAGE                          
                 WEL =     4992370.9785                   WEL =       20000.0000     WEL-1                            
                RCHA =           0.0000                  RCHA =           0.0000     RCH-1                            
                 CHD =    28544851.8551                   CHD =       47719.0584     CHD-FROM-IBOUND                  

           TOTAL OUT =    80252013.8305             TOTAL OUT =       67719.0584

            IN - OUT =          -6.2930              IN - OUT =      -1.6295E-04

 PERCENT DISCREPANCY =          -0.00     PERCENT DISCREPANCY =          -0.00




         TIME SUMMARY AT END OF TIME STEP    3 IN STRESS PERIOD   22
                    SECONDS     MINUTES      HOURS       DAYS        YEARS
                    -----------------------------------------------------------
   TIME STEP LENGTH 2.26223E+05  3770.4      62.840      2.6183     7.16859E-03
 STRESS PERIOD TIME 5.71843E+05  9530.7      158.85      6.6185     1.81206E-02
         TOTAL TIME 5.31894E+07 8.86491E+05  14775.      615.62      1.6855    


end timestep


start timestep kper="22" kstp="4" mode="normal"

 UBDSV1 SAVING     FLOW-JA-FACE ON UNIT   1015 AT TIME STEP      4, STRESS PERIOD     22
 UBDSV06 SAVING              WEL IN MODEL MUMODEL          PACKAGE MUMODEL         CONNECTED TO MODEL MUMODEL          PACKAGE WEL-1            ON UNIT   1015 AT TIME STEP      4, STRESS PERIOD     22
 UBDSV06 SAVING             RCHA IN MODEL MUMODEL          PACKAGE MUMODEL         CONNECTED TO MODEL MUMODEL          PACKAGE RCH-1            ON UNIT   1015 AT TIME STEP      4, STRESS PERIOD     22

 WEL PACKAGE (WEL-1) FLOW RATES   PERIOD     22   STEP        4
 -----------------------------------------------
   NUMBER   CELLID                    RATE      
 -----------------------------------------------
     1      (1,5,5)              -20000.000     
     2      (1,11,5)              0.0000000     
     3      (1,5,5)               0.0000000     
 -----------------------------------------------




 CHD PACKAGE (CHD-FROM-IBOUND) FLOW RATES   PERIOD     22   STEP        4
 -----------------------------------------------
   NUMBER   CELLID                    RATE      
 -----------------------------------------------
     1      (1,1,1)              -2650.0262     
     2      (1,1,2)              -2649.9188     
     3      (1,1,3)              -2649.1725     
     4      (1,1,4)              -2645.6492     
     5      (1,1,5)              -2637.5526     
     6      (1,1,6)              -2645.6473     
     7      (1,1,7)              -2649.1689     
     8      (1,1,8)              -2649.9141     
     9      (1,1,9)              -2650.0211     
     10     (1,21,1)             -2650.0375     
     11     (1,21,2)             -2650.0386     
     12     (1,21,3)             -2650.0400     
     13     (1,21,4)             -2650.0412     
     14     (1,21,5)             -2650.0423     
     15     (1,21,6)             -2650.0431     
     16     (1,21,7)             -2650.0431     
     17     (1,21,8)             -2650.0421     
     18     (1,21,9)             -2650.0409     
 -----------------------------------------------




 HEAD WILL BE SAVED ON UNIT 1016 AT END OF TIME STEP    4, STRESS PERIOD   22


  VOLUME BUDGET FOR ENTIRE MODEL AT END OF TIME STEP    4, STRESS PERIOD  22
  ---------------------------------------------------------------------------------------------------

     CUMULATIVE VOLUME      L**3       RATES FOR THIS TIME STEP      L**3/T          PACKAGE NAME    
     ------------------                 ------------------------                     ----------------

           IN:                                      IN:
           ---                                      ---
              STO-SS =    13499993.9576                STO-SS =       61096.2621     STORAGE                          
              STO-SY =      510804.2685                STO-SY =        2306.1769     STORAGE                          
                 WEL =           0.0000                   WEL =           0.0000     WEL-1                            
                RCHA =    66453851.3144                  RCHA =        4275.0000     RCH-1                            
                 CHD =           0.0000                   CHD =           0.0000     CHD-FROM-IBOUND                  

            TOTAL IN =    80464649.5405              TOTAL IN =       67677.4390

          OUT:                                     OUT:
          ----                                     ----
              STO-SS =    45065158.4270                STO-SS =           0.0000     STORAGE                          
              STO-SY =     1649632.5699                STO-SY =           0.0000     STORAGE                          
                 WEL =     5055210.8277                   WEL =       20000.0000     WEL-1                            
                RCHA =           0.0000                  RCHA =           0.0000     RCH-1                            
                 CHD =    28694654.0097                   CHD =       47677.4393     CHD-FROM-IBOUND                  

           TOTAL OUT =    80464655.8344             TOTAL OUT =       67677.4393

            IN - OUT =          -6.2939              IN - OUT =      -2.7698E-04

 PERCENT DISCREPANCY =          -0.00     PERCENT DISCREPANCY =          -0.00




         TIME SUMMARY AT END OF TIME STEP    4 IN STRESS PERIOD   22
                    SECONDS     MINUTES      HOURS       DAYS        YEARS
                    -----------------------------------------------------------
   TIME STEP LENGTH 2.71468E+05  4524.5      75.408      3.1420     8.60231E-03
 STRESS PERIOD TIME 8.43311E+05  14055.      234.25      9.7605     2.67229E-02
         TOTAL TIME 5.34609E+07 8.91015E+05  14850.      618.76      1.6941    


end timestep


start timestep kper="22" kstp="5" mode="normal"

 UBDSV1 SAVING     FLOW-JA-FACE ON UNIT   1015 AT TIME STEP      5, STRESS PERIOD     22
 UBDSV06 SAVING              WEL IN MODEL MUMODEL          PACKAGE MUMODEL         CONNECTED TO MODEL MUMODEL          PACKAGE WEL-1            ON UNIT   1015 AT TIME STEP      5, STRESS PERIOD     22
 UBDSV06 SAVING             RCHA IN MODEL MUMODEL          PACKAGE MUMODEL         CONNECTED TO MODEL MUMODEL          PACKAGE RCH-1            ON UNIT   1015 AT TIME STEP      5, STRESS PERIOD     22

 WEL PACKAGE (WEL-1) FLOW RATES   PERIOD     22   STEP        5
 -----------------------------------------------
   NUMBER   CELLID                    RATE      
 -----------------------------------------------
     1      (1,5,5)              -20000.000     
     2      (1,11,5)              0.0000000     
     3      (1,5,5)               0.0000000     
 -----------------------------------------------




 CHD PACKAGE (CHD-FROM-IBOUND) FLOW RATES   PERIOD     22   STEP        5
 -----------------------------------------------
   NUMBER   CELLID                    RATE      
 -----------------------------------------------
     1      (1,1,1)              -2647.3340     
     2      (1,1,2)              -2647.2181     
     3      (1,1,3)              -2646.4239     
     4      (1,1,4)              -2642.7230     
     5      (1,1,5)              -2634.3372     
     6      (1,1,6)              -2642.7212     
     7      (1,1,7)              -2646.4204     
     8      (1,1,8)              -2647.2134     
     9      (1,1,9)              -2647.3288     
     10     (1,21,1)             -2647.3466     
     11     (1,21,2)             -2647.3477     
     12     (1,21,3)             -2647.3491     
     13     (1,21,4)             -2647.3503     
     14     (1,21,5)             -2647.3514     
     15     (1,21,6)             -2647.3522     
     16     (1,21,7)             -2647.3522     
     17     (1,21,8)             -2647.3512     
     18     (1,21,9)             -2647.3500     
 -----------------------------------------------




 HEAD WILL BE SAVED ON UNIT 1016 AT END OF TIME STEP    5, STRESS PERIOD   22


  VOLUME BUDGET FOR ENTIRE MODEL AT END OF TIME STEP    5, STRESS PERIOD  22
  ---------------------------------------------------------------------------------------------------

     CUMULATIVE VOLUME      L**3       RATES FOR THIS TIME STEP      L**3/T          PACKAGE NAME    
     ------------------                 ------------------------                     ----------------

           IN:                                      IN:
           ---                                      ---
              STO-SS =    13730171.5295                STO-SS =       61048.7281     STORAGE                          
              STO-SY =      519491.7852                STO-SY =        2304.1422     STORAGE                          
                 WEL =           0.0000                   WEL =           0.0000     WEL-1                            
                RCHA =    66469969.7357                  RCHA =        4275.0000     RCH-1                            
                 CHD =           0.0000                   CHD =           0.0000     CHD-FROM-IBOUND                  

            TOTAL IN =    80719633.0505              TOTAL IN =       67627.8703

          OUT:                                     OUT:
          ----                                     ----
              STO-SS =    45065158.4270                STO-SS =           0.0000     STORAGE                          
              STO-SY =     1649632.5699                STO-SY =           0.0000     STORAGE                          
                 WEL =     5130618.6467                   WEL =       20000.0000     WEL-1                            
                RCHA =           0.0000                  RCHA =           0.0000     RCH-1                            
                 CHD =    28874229.7025                   CHD =       47627.8707     CHD-FROM-IBOUND                  

           TOTAL OUT =    80719639.3461             TOTAL OUT =       67627.8707

            IN - OUT =          -6.2956              IN - OUT =      -4.6645E-04

 PERCENT DISCREPANCY =          -0.00     PERCENT DISCREPANCY =          -0.00




         TIME SUMMARY AT END OF TIME STEP    5 IN STRESS PERIOD   22
                    SECONDS     MINUTES      HOURS       DAYS        YEARS
                    -----------------------------------------------------------
   TIME STEP LENGTH 3.25762E+05  5429.4      90.489      3.7704     1.03228E-02
 STRESS PERIOD TIME 1.16907E+06  19485.      324.74      13.531     3.70457E-02
         TOTAL TIME 5.37867E+07 8.96445E+05  14941.      622.53      1.7044    


end timestep


start timestep kper="22" kstp="6" mode="normal"

 UBDSV1 SAVING     FLOW-JA-FACE ON UNIT   1015 AT TIME STEP      6, STRESS PERIOD     22
 UBDSV06 SAVING              WEL IN MODEL MUMODEL          PACKAGE MUMODEL         CONNECTED TO MODEL MUMODEL          PACKAGE WEL-1            ON UNIT   1015 AT TIME STEP      6, STRESS PERIOD     22
 UBDSV06 SAVING             RCHA IN MODEL MUMODEL          PACKAGE MUMODEL         CONNECTED TO MODEL MUMODEL          PACKAGE RCH-1            ON UNIT   1015 AT TIME STEP      6, STRESS PERIOD     22

 WEL PACKAGE (WEL-1) FLOW RATES   PERIOD     22   STEP        6
 -----------------------------------------------
   NUMBER   CELLID                    RATE      
 -----------------------------------------------
     1      (1,5,5)              -20000.000     
     2      (1,11,5)              0.0000000     
     3      (1,5,5)               0.0000000     
 -----------------------------------------------




 CHD PACKAGE (CHD-FROM-IBOUND) FLOW RATES   PERIOD     22   STEP        6
 -----------------------------------------------
   NUMBER   CELLID                    RATE      
 -----------------------------------------------
     1      (1,1,1)              -2644.1352     
     2      (1,1,2)              -2644.0086     
     3      (1,1,3)              -2643.1538     
     4      (1,1,4)              -2639.2323     
     5      (1,1,5)              -2630.4938     
     6      (1,1,6)              -2639.2305     
     7      (1,1,7)              -2643.1503     
     8      (1,1,8)              -2644.0039     
     9      (1,1,9)              -2644.1301     
     10     (1,21,1)             -2644.1497     
     11     (1,21,2)             -2644.1508     
     12     (1,21,3)             -2644.1522     
     13     (1,21,4)             -2644.1534     
     14     (1,21,5)             -2644.1545     
     15     (1,21,6)             -2644.1552     
     16     (1,21,7)             -2644.1553     
     17     (1,21,8)             -2644.1543     
     18     (1,21,9)             -2644.1531     
 -----------------------------------------------




 HEAD WILL BE SAVED ON UNIT 1016 AT END OF TIME STEP    6, STRESS PERIOD   22


  VOLUME BUDGET FOR ENTIRE MODEL AT END OF TIME STEP    6, STRESS PERIOD  22
  ---------------------------------------------------------------------------------------------------

     CUMULATIVE VOLUME      L**3       RATES FOR THIS TIME STEP      L**3/T          PACKAGE NAME    
     ------------------                 ------------------------                     ----------------

           IN:                                      IN:
           ---                                      ---
              STO-SS =    14006128.8188                STO-SS =       60992.1918     STORAGE                          
              STO-SY =      529905.8693                STO-SY =        2301.7251     STORAGE                          
                 WEL =           0.0000                   WEL =           0.0000     WEL-1                            
                RCHA =    66489311.8413                  RCHA =        4275.0000     RCH-1                            
                 CHD =           0.0000                   CHD =           0.0000     CHD-FROM-IBOUND                  

            TOTAL IN =    81025346.5295              TOTAL IN =       67568.9168

          OUT:                                     OUT:
          ----                                     ----
              STO-SS =    45065158.4270                STO-SS =           0.0000     STORAGE                          
              STO-SY =     1649632.5699                STO-SY =           0.0000     STORAGE                          
                 WEL =     5221108.0295                   WEL =       20000.0000     WEL-1                            
                RCHA =           0.0000                  RCHA =           0.0000     RCH-1                            
                 CHD =    29089453.7989                   CHD =       47568.9169     CHD-FROM-IBOUND                  

           TOTAL OUT =    81025352.8253             TOTAL OUT =       67568.9169

            IN - OUT =          -6.2959              IN - OUT =      -5.5096E-05

 PERCENT DISCREPANCY =          -0.00     PERCENT DISCREPANCY =          -0.00




         TIME SUMMARY AT END OF TIME STEP    6 IN STRESS PERIOD   22
                    SECONDS     MINUTES      HOURS       DAYS        YEARS
                    -----------------------------------------------------------
   TIME STEP LENGTH 3.90914E+05  6515.2      108.59      4.5245     1.23873E-02
 STRESS PERIOD TIME 1.55999E+06  26000.      433.33      18.055     4.94330E-02
         TOTAL TIME 5.41776E+07 9.02960E+05  15049.      627.06      1.7168    


end timestep


start timestep kper="22" kstp="7" mode="normal"

 UBDSV1 SAVING     FLOW-JA-FACE ON UNIT   1015 AT TIME STEP      7, STRESS PERIOD     22
 UBDSV06 SAVING              WEL IN MODEL MUMODEL          PACKAGE MUMODEL         CONNECTED TO MODEL MUMODEL          PACKAGE WEL-1            ON UNIT   1015 AT TIME STEP      7, STRESS PERIOD     22
 UBDSV06 SAVING             RCHA IN MODEL MUMODEL          PACKAGE MUMODEL         CONNECTED TO MODEL MUMODEL          PACKAGE RCH-1            ON UNIT   1015 AT TIME STEP      7, STRESS PERIOD     22

 WEL PACKAGE (WEL-1) FLOW RATES   PERIOD     22   STEP        7
 -----------------------------------------------
   NUMBER   CELLID                    RATE      
 -----------------------------------------------
     1      (1,5,5)              -20000.000     
     2      (1,11,5)              0.0000000     
     3      (1,5,5)               0.0000000     
 -----------------------------------------------




 CHD PACKAGE (CHD-FROM-IBOUND) FLOW RATES   PERIOD     22   STEP        7
 -----------------------------------------------
   NUMBER   CELLID                    RATE      
 -----------------------------------------------
     1      (1,1,1)              -2640.3418     
     2      (1,1,2)              -2640.2011     
     3      (1,1,3)              -2639.2692     
     4      (1,1,4)              -2635.0720     
     5      (1,1,5)              -2625.9025     
     6      (1,1,6)              -2635.0701     
     7      (1,1,7)              -2639.2657     
     8      (1,1,8)              -2640.1965     
     9      (1,1,9)              -2640.3367     
     10     (1,21,1)             -2640.3588     
     11     (1,21,2)             -2640.3598     
     12     (1,21,3)             -2640.3612     
     13     (1,21,4)             -2640.3624     
     14     (1,21,5)             -2640.3635     
     15     (1,21,6)             -2640.3642     
     16     (1,21,7)             -2640.3643     
     17     (1,21,8)             -2640.3633     
     18     (1,21,9)             -2640.3621     
 -----------------------------------------------




 HEAD WILL BE SAVED ON UNIT 1016 AT END OF TIME STEP    7, STRESS PERIOD   22


  VOLUME BUDGET FOR ENTIRE MODEL AT END OF TIME STEP    7, STRESS PERIOD  22
  ---------------------------------------------------------------------------------------------------

     CUMULATIVE VOLUME      L**3       RATES FOR THIS TIME STEP      L**3/T          PACKAGE NAME    
     ------------------                 ------------------------                     ----------------

           IN:                                      IN:
           ---                                      ---
              STO-SS =    14336913.0611                STO-SS =       60925.0559     STORAGE                          
              STO-SY =      542387.2107                STO-SY =        2298.8593     STORAGE                          
                 WEL =           0.0000                   WEL =           0.0000     WEL-1                            
                RCHA =    66512522.3680                  RCHA =        4275.0000     RCH-1                            
                 CHD =           0.0000                   CHD =           0.0000     CHD-FROM-IBOUND                  

            TOTAL IN =    81391822.6397              TOTAL IN =       67498.9152

          OUT:                                     OUT:
          ----                                     ----
              STO-SS =    45065158.4270                STO-SS =           0.0000     STORAGE                          
              STO-SY =     1649632.5699                STO-SY =           0.0000     STORAGE                          
                 WEL =     5329695.2888                   WEL =       20000.0000     WEL-1                            
                RCHA =           0.0000                  RCHA =           0.0000     RCH-1                            
                 CHD =    29347342.6504                   CHD =       47498.9152     CHD-FROM-IBOUND                  

           TOTAL OUT =    81391828.9361             TOTAL OUT =       67498.9152

            IN - OUT =          -6.2964              IN - OUT =      -8.9667E-05

 PERCENT DISCREPANCY =          -0.00     PERCENT DISCREPANCY =          -0.00




         TIME SUMMARY AT END OF TIME STEP    7 IN STRESS PERIOD   22
                    SECONDS     MINUTES      HOURS       DAYS        YEARS
                    -----------------------------------------------------------
   TIME STEP LENGTH 4.69097E+05  7818.3      130.30      5.4294     1.48648E-02
 STRESS PERIOD TIME 2.02908E+06  33818.      563.63      23.485     6.42978E-02
         TOTAL TIME 5.46467E+07 9.10778E+05  15180.      632.48      1.7316    


end timestep


start timestep kper="22" kstp="8" mode="normal"

 UBDSV1 SAVING     FLOW-JA-FACE ON UNIT   1015 AT TIME STEP      8, STRESS PERIOD     22
 UBDSV06 SAVING              WEL IN MODEL MUMODEL          PACKAGE MUMODEL         CONNECTED TO MODEL MUMODEL          PACKAGE WEL-1            ON UNIT   1015 AT TIME STEP      8, STRESS PERIOD     22
 UBDSV06 SAVING             RCHA IN MODEL MUMODEL          PACKAGE MUMODEL         CONNECTED TO MODEL MUMODEL          PACKAGE RCH-1            ON UNIT   1015 AT TIME STEP      8, STRESS PERIOD     22

 WEL PACKAGE (WEL-1) FLOW RATES   PERIOD     22   STEP        8
 -----------------------------------------------
   NUMBER   CELLID                    RATE      
 -----------------------------------------------
     1      (1,5,5)              -20000.000     
     2      (1,11,5)              0.0000000     
     3      (1,5,5)               0.0000000     
 -----------------------------------------------




 CHD PACKAGE (CHD-FROM-IBOUND) FLOW RATES   PERIOD     22   STEP        8
 -----------------------------------------------
   NUMBER   CELLID                    RATE      
 -----------------------------------------------
     1      (1,1,1)              -2635.8530     
     2      (1,1,2)              -2635.6939     
     3      (1,1,3)              -2634.6626     
     4      (1,1,4)              -2630.1186     
     5      (1,1,5)              -2620.4213     
     6      (1,1,6)              -2630.1168     
     7      (1,1,7)              -2634.6591     
     8      (1,1,8)              -2635.6894     
     9      (1,1,9)              -2635.8479     
     10     (1,21,1)             -2635.8733     
     11     (1,21,2)             -2635.8744     
     12     (1,21,3)             -2635.8757     
     13     (1,21,4)             -2635.8770     
     14     (1,21,5)             -2635.8780     
     15     (1,21,6)             -2635.8788     
     16     (1,21,7)             -2635.8788     
     17     (1,21,8)             -2635.8778     
     18     (1,21,9)             -2635.8766     
 -----------------------------------------------




 HEAD WILL BE SAVED ON UNIT 1016 AT END OF TIME STEP    8, STRESS PERIOD   22


  VOLUME BUDGET FOR ENTIRE MODEL AT END OF TIME STEP    8, STRESS PERIOD  22
  ---------------------------------------------------------------------------------------------------

     CUMULATIVE VOLUME      L**3       RATES FOR THIS TIME STEP      L**3/T          PACKAGE NAME    
     ------------------                 ------------------------                     ----------------

           IN:                                      IN:
           ---                                      ---
              STO-SS =    14733335.7210                STO-SS =       60845.4838     STORAGE                          
              STO-SY =      557342.7322                STO-SY =        2295.4690     STORAGE                          
                 WEL =           0.0000                   WEL =           0.0000     WEL-1                            
                RCHA =    66540375.0000                  RCHA =        4275.0000     RCH-1                            
                 CHD =           0.0000                   CHD =           0.0000     CHD-FROM-IBOUND                  

            TOTAL IN =    81831053.4532              TOTAL IN =       67415.9529

          OUT:                                     OUT:
          ----                                     ----
              STO-SS =    45065158.4270                STO-SS =           0.0000     STORAGE                          
              STO-SY =     1649632.5699                STO-SY =           0.0000     STORAGE                          
                 WEL =     5460000.0000                   WEL =       20000.0000     WEL-1                            
                RCHA =           0.0000                  RCHA =           0.0000     RCH-1                            
                 CHD =    29656268.7536                   CHD =       47415.9530     CHD-FROM-IBOUND                  

           TOTAL OUT =    81831059.7505             TOTAL OUT =       67415.9530

            IN - OUT =          -6.2973              IN - OUT =      -1.4886E-04

 PERCENT DISCREPANCY =          -0.00     PERCENT DISCREPANCY =          -0.00




         TIME SUMMARY AT END OF TIME STEP    8 IN STRESS PERIOD   22
                    SECONDS     MINUTES      HOURS       DAYS        YEARS
                    -----------------------------------------------------------
   TIME STEP LENGTH 5.62916E+05  9381.9      156.37      6.5152     1.78377E-02
 STRESS PERIOD TIME 2.59200E+06  43200.      720.00      30.000     8.21355E-02
         TOTAL TIME 5.52096E+07 9.20160E+05  15336.      639.00      1.7495    


end timestep


start timestep kper="23" kstp="1" mode="normal"


 OUTPUT CONTROL FOR STRESS PERIOD 23 IS REPEATED USING SETTINGS FROM A PREVIOUS STRESS PERIOD.


 STRESS PERIOD 23 IS TRANSIENT


 REUSING WELS FROM LAST STRESS PERIOD

 REUSING RCHS FROM LAST STRESS PERIOD

 REUSING CHDS FROM LAST STRESS PERIOD
 UBDSV1 SAVING     FLOW-JA-FACE ON UNIT   1015 AT TIME STEP      1, STRESS PERIOD     23
 UBDSV06 SAVING              WEL IN MODEL MUMODEL          PACKAGE MUMODEL         CONNECTED TO MODEL MUMODEL          PACKAGE WEL-1            ON UNIT   1015 AT TIME STEP      1, STRESS PERIOD     23
 UBDSV06 SAVING             RCHA IN MODEL MUMODEL          PACKAGE MUMODEL         CONNECTED TO MODEL MUMODEL          PACKAGE RCH-1            ON UNIT   1015 AT TIME STEP      1, STRESS PERIOD     23

 WEL PACKAGE (WEL-1) FLOW RATES   PERIOD     23   STEP        1
 -----------------------------------------------
   NUMBER   CELLID                    RATE      
 -----------------------------------------------
     1      (1,5,5)              -20000.000     
     2      (1,11,5)              0.0000000     
     3      (1,5,5)               0.0000000     
 -----------------------------------------------




 CHD PACKAGE (CHD-FROM-IBOUND) FLOW RATES   PERIOD     23   STEP        1
 -----------------------------------------------
   NUMBER   CELLID                    RATE      
 -----------------------------------------------
     1      (1,1,1)              -2634.5636     
     2      (1,1,2)              -2634.3991     
     3      (1,1,3)              -2633.3385     
     4      (1,1,4)              -2628.6931     
     5      (1,1,5)              -2618.8427     
     6      (1,1,6)              -2628.6913     
     7      (1,1,7)              -2633.3351     
     8      (1,1,8)              -2634.3946     
     9      (1,1,9)              -2634.5586     
     10     (1,21,1)             -2634.5850     
     11     (1,21,2)             -2634.5860     
     12     (1,21,3)             -2634.5874     
     13     (1,21,4)             -2634.5886     
     14     (1,21,5)             -2634.5896     
     15     (1,21,6)             -2634.5904     
     16     (1,21,7)             -2634.5904     
     17     (1,21,8)             -2634.5895     
     18     (1,21,9)             -2634.5883     
 -----------------------------------------------




 HEAD WILL BE SAVED ON UNIT 1016 AT END OF TIME STEP    1, STRESS PERIOD   23


  VOLUME BUDGET FOR ENTIRE MODEL AT END OF TIME STEP    1, STRESS PERIOD  23
  ---------------------------------------------------------------------------------------------------

     CUMULATIVE VOLUME      L**3       RATES FOR THIS TIME STEP      L**3/T          PACKAGE NAME    
     ------------------                 ------------------------                     ----------------

           IN:                                      IN:
           ---                                      ---
              STO-SS =    14847614.2613                STO-SS =       60822.3009     STORAGE                          
              STO-SY =      561654.4339                STO-SY =        2294.8107     STORAGE                          
                 WEL =           0.0000                   WEL =           0.0000     WEL-1                            
                RCHA =    66548407.2637                  RCHA =        4275.0000     RCH-1                            
                 CHD =           0.0000                   CHD =           0.0000     CHD-FROM-IBOUND                  

            TOTAL IN =    81957675.9589              TOTAL IN =       67392.1116

          OUT:                                     OUT:
          ----                                     ----
              STO-SS =    45065158.4270                STO-SS =           0.0000     STORAGE                          
              STO-SY =     1649632.5699                STO-SY =           0.0000     STORAGE                          
                 WEL =     5497577.8419                   WEL =       20000.0000     WEL-1                            
                RCHA =           0.0000                  RCHA =           0.0000     RCH-1                            
                 CHD =    29745313.4175                   CHD =       47392.1116     CHD-FROM-IBOUND                  

           TOTAL OUT =    81957682.2563             TOTAL OUT =       67392.1116

            IN - OUT =          -6.2974              IN - OUT =      -5.2753E-05

 PERCENT DISCREPANCY =          -0.00     PERCENT DISCREPANCY =          -0.00




         TIME SUMMARY AT END OF TIME STEP    1 IN STRESS PERIOD   23
                    SECONDS     MINUTES      HOURS       DAYS        YEARS
                    -----------------------------------------------------------
   TIME STEP LENGTH 1.62336E+05  2705.6      45.093      1.8789     5.14413E-03
 STRESS PERIOD TIME 1.62336E+05  2705.6      45.093      1.8789     5.14413E-03
         TOTAL TIME 5.53719E+07 9.22866E+05  15381.      640.88      1.7546    


end timestep


start timestep kper="23" kstp="2" mode="normal"

 UBDSV1 SAVING     FLOW-JA-FACE ON UNIT   1015 AT TIME STEP      2, STRESS PERIOD     23
 UBDSV06 SAVING              WEL IN MODEL MUMODEL          PACKAGE MUMODEL         CONNECTED TO MODEL MUMODEL          PACKAGE WEL-1            ON UNIT   1015 AT TIME STEP      2, STRESS PERIOD     23
 UBDSV06 SAVING             RCHA IN MODEL MUMODEL          PACKAGE MUMODEL         CONNECTED TO MODEL MUMODEL          PACKAGE RCH-1            ON UNIT   1015 AT TIME STEP      2, STRESS PERIOD     23

 WEL PACKAGE (WEL-1) FLOW RATES   PERIOD     23   STEP        2
 -----------------------------------------------
   NUMBER   CELLID                    RATE      
 -----------------------------------------------
     1      (1,5,5)              -20000.000     
     2      (1,11,5)              0.0000000     
     3      (1,5,5)               0.0000000     
 -----------------------------------------------




 CHD PACKAGE (CHD-FROM-IBOUND) FLOW RATES   PERIOD     23   STEP        2
 -----------------------------------------------
   NUMBER   CELLID                    RATE      
 -----------------------------------------------
     1      (1,1,1)              -2633.0239     
     2      (1,1,2)              -2632.8527     
     3      (1,1,3)              -2631.7562     
     4      (1,1,4)              -2626.9873     
     5      (1,1,5)              -2616.9519     
     6      (1,1,6)              -2626.9855     
     7      (1,1,7)              -2631.7527     
     8      (1,1,8)              -2632.8481     
     9      (1,1,9)              -2633.0189     
     10     (1,21,1)             -2633.0466     
     11     (1,21,2)             -2633.0476     
     12     (1,21,3)             -2633.0489     
     13     (1,21,4)             -2633.0502     
     14     (1,21,5)             -2633.0512     
     15     (1,21,6)             -2633.0519     
     16     (1,21,7)             -2633.0520     
     17     (1,21,8)             -2633.0510     
     18     (1,21,9)             -2633.0498     
 -----------------------------------------------




 HEAD WILL BE SAVED ON UNIT 1016 AT END OF TIME STEP    2, STRESS PERIOD   23


  VOLUME BUDGET FOR ENTIRE MODEL AT END OF TIME STEP    2, STRESS PERIOD  23
  ---------------------------------------------------------------------------------------------------

     CUMULATIVE VOLUME      L**3       RATES FOR THIS TIME STEP      L**3/T          PACKAGE NAME    
     ------------------                 ------------------------                     ----------------

           IN:                                      IN:
           ---                                      ---
              STO-SS =    14984686.9152                STO-SS =       60794.9823     STORAGE                          
              STO-SY =      566825.8454                STO-SY =        2293.6440     STORAGE                          
                 WEL =           0.0000                   WEL =           0.0000     WEL-1                            
                RCHA =    66558045.9802                  RCHA =        4275.0000     RCH-1                            
                 CHD =           0.0000                   CHD =           0.0000     CHD-FROM-IBOUND                  

            TOTAL IN =    82109558.7408              TOTAL IN =       67363.6263

          OUT:                                     OUT:
          ----                                     ----
              STO-SS =    45065158.4270                STO-SS =           0.0000     STORAGE                          
              STO-SY =     1649632.5699                STO-SY =           0.0000     STORAGE                          
                 WEL =     5542671.2522                   WEL =       20000.0000     WEL-1                            
                RCHA =           0.0000                  RCHA =           0.0000     RCH-1                            
                 CHD =    29852102.7893                   CHD =       47363.6264     CHD-FROM-IBOUND                  

           TOTAL OUT =    82109565.0384             TOTAL OUT =       67363.6264

            IN - OUT =          -6.2976              IN - OUT =      -9.6143E-05

 PERCENT DISCREPANCY =          -0.00     PERCENT DISCREPANCY =          -0.00




         TIME SUMMARY AT END OF TIME STEP    2 IN STRESS PERIOD   23
                    SECONDS     MINUTES      HOURS       DAYS        YEARS
                    -----------------------------------------------------------
   TIME STEP LENGTH 1.94804E+05  3246.7      54.112      2.2547     6.17295E-03
 STRESS PERIOD TIME 3.57140E+05  5952.3      99.206      4.1336     1.13171E-02
         TOTAL TIME 5.55667E+07 9.26112E+05  15435.      643.13      1.7608    


end timestep


start timestep kper="23" kstp="3" mode="normal"

 UBDSV1 SAVING     FLOW-JA-FACE ON UNIT   1015 AT TIME STEP      3, STRESS PERIOD     23
 UBDSV06 SAVING              WEL IN MODEL MUMODEL          PACKAGE MUMODEL         CONNECTED TO MODEL MUMODEL          PACKAGE WEL-1            ON UNIT   1015 AT TIME STEP      3, STRESS PERIOD     23
 UBDSV06 SAVING             RCHA IN MODEL MUMODEL          PACKAGE MUMODEL         CONNECTED TO MODEL MUMODEL          PACKAGE RCH-1            ON UNIT   1015 AT TIME STEP      3, STRESS PERIOD     23

 WEL PACKAGE (WEL-1) FLOW RATES   PERIOD     23   STEP        3
 -----------------------------------------------
   NUMBER   CELLID                    RATE      
 -----------------------------------------------
     1      (1,5,5)              -20000.000     
     2      (1,11,5)              0.0000000     
     3      (1,5,5)               0.0000000     
 -----------------------------------------------




 CHD PACKAGE (CHD-FROM-IBOUND) FLOW RATES   PERIOD     23   STEP        3
 -----------------------------------------------
   NUMBER   CELLID                    RATE      
 -----------------------------------------------
     1      (1,1,1)              -2631.1870     
     2      (1,1,2)              -2631.0073     
     3      (1,1,3)              -2629.8665     
     4      (1,1,4)              -2624.9467     
     5      (1,1,5)              -2614.6876     
     6      (1,1,6)              -2624.9449     
     7      (1,1,7)              -2629.8631     
     8      (1,1,8)              -2631.0028     
     9      (1,1,9)              -2631.1820     
     10     (1,21,1)             -2631.2112     
     11     (1,21,2)             -2631.2122     
     12     (1,21,3)             -2631.2135     
     13     (1,21,4)             -2631.2147     
     14     (1,21,5)             -2631.2158     
     15     (1,21,6)             -2631.2165     
     16     (1,21,7)             -2631.2165     
     17     (1,21,8)             -2631.2156     
     18     (1,21,9)             -2631.2144     
 -----------------------------------------------




 HEAD WILL BE SAVED ON UNIT 1016 AT END OF TIME STEP    3, STRESS PERIOD   23


  VOLUME BUDGET FOR ENTIRE MODEL AT END OF TIME STEP    3, STRESS PERIOD  23
  ---------------------------------------------------------------------------------------------------

     CUMULATIVE VOLUME      L**3       RATES FOR THIS TIME STEP      L**3/T          PACKAGE NAME    
     ------------------                 ------------------------                     ----------------

           IN:                                      IN:
           ---                                      ---
              STO-SS =    15149085.8520                STO-SS =       60762.3656     STORAGE                          
              STO-SY =      573027.7740                STO-SY =        2292.2524     STORAGE                          
                 WEL =           0.0000                   WEL =           0.0000     WEL-1                            
                RCHA =    66569612.4399                  RCHA =        4275.0000     RCH-1                            
                 CHD =           0.0000                   CHD =           0.0000     CHD-FROM-IBOUND                  

            TOTAL IN =    82291726.0659              TOTAL IN =       67329.6179

          OUT:                                     OUT:
          ----                                     ----
              STO-SS =    45065158.4270                STO-SS =           0.0000     STORAGE                          
              STO-SY =     1649632.5699                STO-SY =           0.0000     STORAGE                          
                 WEL =     5596783.3445                   WEL =       20000.0000     WEL-1                            
                RCHA =           0.0000                  RCHA =           0.0000     RCH-1                            
                 CHD =    29980158.0226                   CHD =       47329.6181     CHD-FROM-IBOUND                  

           TOTAL OUT =    82291732.3640             TOTAL OUT =       67329.6181

            IN - OUT =          -6.2981              IN - OUT =      -1.6316E-04

 PERCENT DISCREPANCY =          -0.00     PERCENT DISCREPANCY =          -0.00




         TIME SUMMARY AT END OF TIME STEP    3 IN STRESS PERIOD   23
                    SECONDS     MINUTES      HOURS       DAYS        YEARS
                    -----------------------------------------------------------
   TIME STEP LENGTH 2.33764E+05  3896.1      64.935      2.7056     7.40754E-03
 STRESS PERIOD TIME 5.90904E+05  9848.4      164.14      6.8392     1.87246E-02
         TOTAL TIME 5.58005E+07 9.30008E+05  15500.      645.84      1.7682    


end timestep


start timestep kper="23" kstp="4" mode="normal"

 UBDSV1 SAVING     FLOW-JA-FACE ON UNIT   1015 AT TIME STEP      4, STRESS PERIOD     23
 UBDSV06 SAVING              WEL IN MODEL MUMODEL          PACKAGE MUMODEL         CONNECTED TO MODEL MUMODEL          PACKAGE WEL-1            ON UNIT   1015 AT TIME STEP      4, STRESS PERIOD     23
 UBDSV06 SAVING             RCHA IN MODEL MUMODEL          PACKAGE MUMODEL         CONNECTED TO MODEL MUMODEL          PACKAGE RCH-1            ON UNIT   1015 AT TIME STEP      4, STRESS PERIOD     23

 WEL PACKAGE (WEL-1) FLOW RATES   PERIOD     23   STEP        4
 -----------------------------------------------
   NUMBER   CELLID                    RATE      
 -----------------------------------------------
     1      (1,5,5)              -20000.000     
     2      (1,11,5)              0.0000000     
     3      (1,5,5)               0.0000000     
 -----------------------------------------------




 CHD PACKAGE (CHD-FROM-IBOUND) FLOW RATES   PERIOD     23   STEP        4
 -----------------------------------------------
   NUMBER   CELLID                    RATE      
 -----------------------------------------------
     1      (1,1,1)              -2628.9977     
     2      (1,1,2)              -2628.8076     
     3      (1,1,3)              -2627.6118     
     4      (1,1,4)              -2622.5069     
     5      (1,1,5)              -2611.9769     
     6      (1,1,6)              -2622.5051     
     7      (1,1,7)              -2627.6084     
     8      (1,1,8)              -2628.8031     
     9      (1,1,9)              -2628.9927     
     10     (1,21,1)             -2629.0239     
     11     (1,21,2)             -2629.0249     
     12     (1,21,3)             -2629.0263     
     13     (1,21,4)             -2629.0275     
     14     (1,21,5)             -2629.0285     
     15     (1,21,6)             -2629.0292     
     16     (1,21,7)             -2629.0292     
     17     (1,21,8)             -2629.0283     
     18     (1,21,9)             -2629.0271     
 -----------------------------------------------




 HEAD WILL BE SAVED ON UNIT 1016 AT END OF TIME STEP    4, STRESS PERIOD   23


  VOLUME BUDGET FOR ENTIRE MODEL AT END OF TIME STEP    4, STRESS PERIOD  23
  ---------------------------------------------------------------------------------------------------

     CUMULATIVE VOLUME      L**3       RATES FOR THIS TIME STEP      L**3/T          PACKAGE NAME    
     ------------------                 ------------------------                     ----------------

           IN:                                      IN:
           ---                                      ---
              STO-SS =    15346238.2626                STO-SS =       60723.4607     STORAGE                          
              STO-SY =      580464.7047                STO-SY =        2290.5942     STORAGE                          
                 WEL =           0.0000                   WEL =           0.0000     WEL-1                            
                RCHA =    66583492.1916                  RCHA =        4275.0000     RCH-1                            
                 CHD =           0.0000                   CHD =           0.0000     CHD-FROM-IBOUND                  

            TOTAL IN =    82510195.1589              TOTAL IN =       67289.0549

          OUT:                                     OUT:
          ----                                     ----
              STO-SS =    45065158.4270                STO-SS =           0.0000     STORAGE                          
              STO-SY =     1649632.5699                STO-SY =           0.0000     STORAGE                          
                 WEL =     5661717.8553                   WEL =       20000.0000     WEL-1                            
                RCHA =           0.0000                  RCHA =           0.0000     RCH-1                            
                 CHD =    30133692.6057                   CHD =       47289.0552     CHD-FROM-IBOUND                  

           TOTAL OUT =    82510201.4579             TOTAL OUT =       67289.0552

            IN - OUT =          -6.2990              IN - OUT =      -2.7665E-04

 PERCENT DISCREPANCY =          -0.00     PERCENT DISCREPANCY =          -0.00




         TIME SUMMARY AT END OF TIME STEP    4 IN STRESS PERIOD   23
                    SECONDS     MINUTES      HOURS       DAYS        YEARS
                    -----------------------------------------------------------
   TIME STEP LENGTH 2.80517E+05  4675.3      77.921      3.2467     8.88905E-03
 STRESS PERIOD TIME 8.71421E+05  14524.      242.06      10.086     2.76137E-02
         TOTAL TIME 5.60810E+07 9.34684E+05  15578.      649.09      1.7771    


end timestep


start timestep kper="23" kstp="5" mode="normal"

 UBDSV1 SAVING     FLOW-JA-FACE ON UNIT   1015 AT TIME STEP      5, STRESS PERIOD     23
 UBDSV06 SAVING              WEL IN MODEL MUMODEL          PACKAGE MUMODEL         CONNECTED TO MODEL MUMODEL          PACKAGE WEL-1            ON UNIT   1015 AT TIME STEP      5, STRESS PERIOD     23
 UBDSV06 SAVING             RCHA IN MODEL MUMODEL          PACKAGE MUMODEL         CONNECTED TO MODEL MUMODEL          PACKAGE RCH-1            ON UNIT   1015 AT TIME STEP      5, STRESS PERIOD     23

 WEL PACKAGE (WEL-1) FLOW RATES   PERIOD     23   STEP        5
 -----------------------------------------------
   NUMBER   CELLID                    RATE      
 -----------------------------------------------
     1      (1,5,5)              -20000.000     
     2      (1,11,5)              0.0000000     
     3      (1,5,5)               0.0000000     
 -----------------------------------------------




 CHD PACKAGE (CHD-FROM-IBOUND) FLOW RATES   PERIOD     23   STEP        5
 -----------------------------------------------
   NUMBER   CELLID                    RATE      
 -----------------------------------------------
     1      (1,1,1)              -2626.3921     
     2      (1,1,2)              -2626.1886     
     3      (1,1,3)              -2624.9244     
     4      (1,1,4)              -2619.5917     
     5      (1,1,5)              -2608.7333     
     6      (1,1,6)              -2619.5899     
     7      (1,1,7)              -2624.9210     
     8      (1,1,8)              -2626.1842     
     9      (1,1,9)              -2626.3871     
     10     (1,21,1)             -2626.4208     
     11     (1,21,2)             -2626.4218     
     12     (1,21,3)             -2626.4232     
     13     (1,21,4)             -2626.4244     
     14     (1,21,5)             -2626.4254     
     15     (1,21,6)             -2626.4261     
     16     (1,21,7)             -2626.4261     
     17     (1,21,8)             -2626.4252     
     18     (1,21,9)             -2626.4240     
 -----------------------------------------------




 HEAD WILL BE SAVED ON UNIT 1016 AT END OF TIME STEP    5, STRESS PERIOD   23


  VOLUME BUDGET FOR ENTIRE MODEL AT END OF TIME STEP    5, STRESS PERIOD  23
  ---------------------------------------------------------------------------------------------------

     CUMULATIVE VOLUME      L**3       RATES FOR THIS TIME STEP      L**3/T          PACKAGE NAME    
     ------------------                 ------------------------                     ----------------

           IN:                                      IN:
           ---                                      ---
              STO-SS =    15582640.5603                STO-SS =       60677.1076     STORAGE                          
              STO-SY =      589381.3348                STO-SY =        2288.6212     STORAGE                          
                 WEL =           0.0000                   WEL =           0.0000     WEL-1                            
                RCHA =    66600147.8936                  RCHA =        4275.0000     RCH-1                            
                 CHD =           0.0000                   CHD =           0.0000     CHD-FROM-IBOUND                  

            TOTAL IN =    82772169.7887              TOTAL IN =       67240.7288

          OUT:                                     OUT:
          ----                                     ----
              STO-SS =    45065158.4270                STO-SS =           0.0000     STORAGE                          
              STO-SY =     1649632.5699                STO-SY =           0.0000     STORAGE                          
                 WEL =     5739639.2682                   WEL =       20000.0000     WEL-1                            
                RCHA =           0.0000                  RCHA =           0.0000     RCH-1                            
                 CHD =    30317745.8243                   CHD =       47240.7292     CHD-FROM-IBOUND                  

           TOTAL OUT =    82772176.0894             TOTAL OUT =       67240.7292

            IN - OUT =          -6.3008              IN - OUT =      -4.6234E-04

 PERCENT DISCREPANCY =          -0.00     PERCENT DISCREPANCY =          -0.00




         TIME SUMMARY AT END OF TIME STEP    5 IN STRESS PERIOD   23
                    SECONDS     MINUTES      HOURS       DAYS        YEARS
                    -----------------------------------------------------------
   TIME STEP LENGTH 3.36621E+05  5610.3      93.506      3.8961     1.06669E-02
 STRESS PERIOD TIME 1.20804E+06  20134.      335.57      13.982     3.82805E-02
         TOTAL TIME 5.64176E+07 9.40294E+05  15672.      652.98      1.7878    


end timestep


start timestep kper="23" kstp="6" mode="normal"

 UBDSV1 SAVING     FLOW-JA-FACE ON UNIT   1015 AT TIME STEP      6, STRESS PERIOD     23
 UBDSV06 SAVING              WEL IN MODEL MUMODEL          PACKAGE MUMODEL         CONNECTED TO MODEL MUMODEL          PACKAGE WEL-1            ON UNIT   1015 AT TIME STEP      6, STRESS PERIOD     23
 UBDSV06 SAVING             RCHA IN MODEL MUMODEL          PACKAGE MUMODEL         CONNECTED TO MODEL MUMODEL          PACKAGE RCH-1            ON UNIT   1015 AT TIME STEP      6, STRESS PERIOD     23

 WEL PACKAGE (WEL-1) FLOW RATES   PERIOD     23   STEP        6
 -----------------------------------------------
   NUMBER   CELLID                    RATE      
 -----------------------------------------------
     1      (1,5,5)              -20000.000     
     2      (1,11,5)              0.0000000     
     3      (1,5,5)               0.0000000     
 -----------------------------------------------




 CHD PACKAGE (CHD-FROM-IBOUND) FLOW RATES   PERIOD     23   STEP        6
 -----------------------------------------------
   NUMBER   CELLID                    RATE      
 -----------------------------------------------
     1      (1,1,1)              -2623.2956     
     2      (1,1,2)              -2623.0753     
     3      (1,1,3)              -2621.7251     
     4      (1,1,4)              -2616.1108     
     5      (1,1,5)              -2604.8535     
     6      (1,1,6)              -2616.1090     
     7      (1,1,7)              -2621.7217     
     8      (1,1,8)              -2623.0709     
     9      (1,1,9)              -2623.2907     
     10     (1,21,1)             -2623.3277     
     11     (1,21,2)             -2623.3287     
     12     (1,21,3)             -2623.3300     
     13     (1,21,4)             -2623.3312     
     14     (1,21,5)             -2623.3323     
     15     (1,21,6)             -2623.3330     
     16     (1,21,7)             -2623.3330     
     17     (1,21,8)             -2623.3320     
     18     (1,21,9)             -2623.3309     
 -----------------------------------------------




 HEAD WILL BE SAVED ON UNIT 1016 AT END OF TIME STEP    6, STRESS PERIOD   23


  VOLUME BUDGET FOR ENTIRE MODEL AT END OF TIME STEP    6, STRESS PERIOD  23
  ---------------------------------------------------------------------------------------------------

     CUMULATIVE VOLUME      L**3       RATES FOR THIS TIME STEP      L**3/T          PACKAGE NAME    
     ------------------                 ------------------------                     ----------------

           IN:                                      IN:
           ---                                      ---
              STO-SS =    15866065.4590                STO-SS =       60621.9540     STORAGE                          
              STO-SY =      600070.3327                STO-SY =        2286.2774     STORAGE                          
                 WEL =           0.0000                   WEL =           0.0000     WEL-1                            
                RCHA =    66620134.7360                  RCHA =        4275.0000     RCH-1                            
                 CHD =           0.0000                   CHD =           0.0000     CHD-FROM-IBOUND                  

            TOTAL IN =    83086270.5277              TOTAL IN =       67183.2314

          OUT:                                     OUT:
          ----                                     ----
              STO-SS =    45065158.4270                STO-SS =           0.0000     STORAGE                          
              STO-SY =     1649632.5699                STO-SY =           0.0000     STORAGE                          
                 WEL =     5833144.9638                   WEL =       20000.0000     WEL-1                            
                RCHA =           0.0000                  RCHA =           0.0000     RCH-1                            
                 CHD =    30538340.8680                   CHD =       47183.2315     CHD-FROM-IBOUND                  

           TOTAL OUT =    83086276.8287             TOTAL OUT =       67183.2315

            IN - OUT =          -6.3010              IN - OUT =      -5.2147E-05

 PERCENT DISCREPANCY =          -0.00     PERCENT DISCREPANCY =          -0.00




         TIME SUMMARY AT END OF TIME STEP    6 IN STRESS PERIOD   23
                    SECONDS     MINUTES      HOURS       DAYS        YEARS
                    -----------------------------------------------------------
   TIME STEP LENGTH 4.03945E+05  6732.4      112.21      4.6753     1.28002E-02
 STRESS PERIOD TIME 1.61199E+06  26866.      447.77      18.657     5.10808E-02
         TOTAL TIME 5.68216E+07 9.47026E+05  15784.      657.66      1.8006    


end timestep


start timestep kper="23" kstp="7" mode="normal"

 UBDSV1 SAVING     FLOW-JA-FACE ON UNIT   1015 AT TIME STEP      7, STRESS PERIOD     23
 UBDSV06 SAVING              WEL IN MODEL MUMODEL          PACKAGE MUMODEL         CONNECTED TO MODEL MUMODEL          PACKAGE WEL-1            ON UNIT   1015 AT TIME STEP      7, STRESS PERIOD     23
 UBDSV06 SAVING             RCHA IN MODEL MUMODEL          PACKAGE MUMODEL         CONNECTED TO MODEL MUMODEL          PACKAGE RCH-1            ON UNIT   1015 AT TIME STEP      7, STRESS PERIOD     23

 WEL PACKAGE (WEL-1) FLOW RATES   PERIOD     23   STEP        7
 -----------------------------------------------
   NUMBER   CELLID                    RATE      
 -----------------------------------------------
     1      (1,5,5)              -20000.000     
     2      (1,11,5)              0.0000000     
     3      (1,5,5)               0.0000000     
 -----------------------------------------------




 CHD PACKAGE (CHD-FROM-IBOUND) FLOW RATES   PERIOD     23   STEP        7
 -----------------------------------------------
   NUMBER   CELLID                    RATE      
 -----------------------------------------------
     1      (1,1,1)              -2619.6227     
     2      (1,1,2)              -2619.3806     
     3      (1,1,3)              -2617.9216     
     4      (1,1,4)              -2611.9576     
     5      (1,1,5)              -2600.2153     
     6      (1,1,6)              -2611.9558     
     7      (1,1,7)              -2617.9182     
     8      (1,1,8)              -2619.3762     
     9      (1,1,9)              -2619.6178     
     10     (1,21,1)             -2619.6591     
     11     (1,21,2)             -2619.6601     
     12     (1,21,3)             -2619.6614     
     13     (1,21,4)             -2619.6626     
     14     (1,21,5)             -2619.6637     
     15     (1,21,6)             -2619.6644     
     16     (1,21,7)             -2619.6643     
     17     (1,21,8)             -2619.6634     
     18     (1,21,9)             -2619.6623     
 -----------------------------------------------




 HEAD WILL BE SAVED ON UNIT 1016 AT END OF TIME STEP    7, STRESS PERIOD   23


  VOLUME BUDGET FOR ENTIRE MODEL AT END OF TIME STEP    7, STRESS PERIOD  23
  ---------------------------------------------------------------------------------------------------

     CUMULATIVE VOLUME      L**3       RATES FOR THIS TIME STEP      L**3/T          PACKAGE NAME    
     ------------------                 ------------------------                     ----------------

           IN:                                      IN:
           ---                                      ---
              STO-SS =    16205807.7200                STO-SS =       60556.4290     STORAGE                          
              STO-SY =      612881.5380                STO-SY =        2283.4982     STORAGE                          
                 WEL =           0.0000                   WEL =           0.0000     WEL-1                            
                RCHA =    66644118.9469                  RCHA =        4275.0000     RCH-1                            
                 CHD =           0.0000                   CHD =           0.0000     CHD-FROM-IBOUND                  

            TOTAL IN =    83462808.2050              TOTAL IN =       67114.9273

          OUT:                                     OUT:
          ----                                     ----
              STO-SS =    45065158.4270                STO-SS =           0.0000     STORAGE                          
              STO-SY =     1649632.5699                STO-SY =           0.0000     STORAGE                          
                 WEL =     5945351.7984                   WEL =       20000.0000     WEL-1                            
                RCHA =           0.0000                  RCHA =           0.0000     RCH-1                            
                 CHD =    30802671.7111                   CHD =       47114.9273     CHD-FROM-IBOUND                  

           TOTAL OUT =    83462814.5065             TOTAL OUT =       67114.9273

            IN - OUT =          -6.3015              IN - OUT =      -8.7903E-05

 PERCENT DISCREPANCY =          -0.00     PERCENT DISCREPANCY =          -0.00




         TIME SUMMARY AT END OF TIME STEP    7 IN STRESS PERIOD   23
                    SECONDS     MINUTES      HOURS       DAYS        YEARS
                    -----------------------------------------------------------
   TIME STEP LENGTH 4.84734E+05  8078.9      134.65      5.6103     1.53603E-02
 STRESS PERIOD TIME 2.09672E+06  34945.      582.42      24.268     6.64410E-02
         TOTAL TIME 5.73063E+07 9.55105E+05  15918.      663.27      1.8159    


end timestep


start timestep kper="23" kstp="8" mode="normal"

 UBDSV1 SAVING     FLOW-JA-FACE ON UNIT   1015 AT TIME STEP      8, STRESS PERIOD     23
 UBDSV06 SAVING              WEL IN MODEL MUMODEL          PACKAGE MUMODEL         CONNECTED TO MODEL MUMODEL          PACKAGE WEL-1            ON UNIT   1015 AT TIME STEP      8, STRESS PERIOD     23
 UBDSV06 SAVING             RCHA IN MODEL MUMODEL          PACKAGE MUMODEL         CONNECTED TO MODEL MUMODEL          PACKAGE RCH-1            ON UNIT   1015 AT TIME STEP      8, STRESS PERIOD     23

 WEL PACKAGE (WEL-1) FLOW RATES   PERIOD     23   STEP        8
 -----------------------------------------------
   NUMBER   CELLID                    RATE      
 -----------------------------------------------
     1      (1,5,5)              -20000.000     
     2      (1,11,5)              0.0000000     
     3      (1,5,5)               0.0000000     
 -----------------------------------------------




 CHD PACKAGE (CHD-FROM-IBOUND) FLOW RATES   PERIOD     23   STEP        8
 -----------------------------------------------
   NUMBER   CELLID                    RATE      
 -----------------------------------------------
     1      (1,1,1)              -2615.2752     
     2      (1,1,2)              -2615.0048     
     3      (1,1,3)              -2613.4069     
     4      (1,1,4)              -2607.0065     
     5      (1,1,5)              -2594.6734     
     6      (1,1,6)              -2607.0047     
     7      (1,1,7)              -2613.4036     
     8      (1,1,8)              -2615.0004     
     9      (1,1,9)              -2615.2703     
     10     (1,21,1)             -2615.3175     
     11     (1,21,2)             -2615.3185     
     12     (1,21,3)             -2615.3198     
     13     (1,21,4)             -2615.3209     
     14     (1,21,5)             -2615.3220     
     15     (1,21,6)             -2615.3226     
     16     (1,21,7)             -2615.3226     
     17     (1,21,8)             -2615.3217     
     18     (1,21,9)             -2615.3206     
 -----------------------------------------------




 HEAD WILL BE SAVED ON UNIT 1016 AT END OF TIME STEP    8, STRESS PERIOD   23


  VOLUME BUDGET FOR ENTIRE MODEL AT END OF TIME STEP    8, STRESS PERIOD  23
  ---------------------------------------------------------------------------------------------------

     CUMULATIVE VOLUME      L**3       RATES FOR THIS TIME STEP      L**3/T          PACKAGE NAME    
     ------------------                 ------------------------                     ----------------

           IN:                                      IN:
           ---                                      ---
              STO-SS =    16612975.2770                STO-SS =       60478.7219     STORAGE                          
              STO-SY =      628232.8469                STO-SY =        2280.2100     STORAGE                          
                 WEL =           0.0000                   WEL =           0.0000     WEL-1                            
                RCHA =    66672900.0000                  RCHA =        4275.0000     RCH-1                            
                 CHD =           0.0000                   CHD =           0.0000     CHD-FROM-IBOUND                  

            TOTAL IN =    83914108.1239              TOTAL IN =       67033.9319

          OUT:                                     OUT:
          ----                                     ----
              STO-SS =    45065158.4270                STO-SS =           0.0000     STORAGE                          
              STO-SY =     1649632.5699                STO-SY =           0.0000     STORAGE                          
                 WEL =     6080000.0000                   WEL =       20000.0000     WEL-1                            
                RCHA =           0.0000                  RCHA =           0.0000     RCH-1                            
                 CHD =    31119323.4294                   CHD =       47033.9321     CHD-FROM-IBOUND                  

           TOTAL OUT =    83914114.4264             TOTAL OUT =       67033.9321

            IN - OUT =          -6.3025              IN - OUT =      -1.4369E-04

 PERCENT DISCREPANCY =          -0.00     PERCENT DISCREPANCY =          -0.00




         TIME SUMMARY AT END OF TIME STEP    8 IN STRESS PERIOD   23
                    SECONDS     MINUTES      HOURS       DAYS        YEARS
                    -----------------------------------------------------------
   TIME STEP LENGTH 5.81680E+05  9694.7      161.58      6.7324     1.84323E-02
 STRESS PERIOD TIME 2.67840E+06  44640.      744.00      31.000     8.48734E-02
         TOTAL TIME 5.78880E+07 9.64800E+05  16080.      670.00      1.8344    


end timestep


start timestep kper="24" kstp="1" mode="normal"


 OUTPUT CONTROL FOR STRESS PERIOD 24 IS REPEATED USING SETTINGS FROM A PREVIOUS STRESS PERIOD.


 STRESS PERIOD 24 IS TRANSIENT


 REUSING WELS FROM LAST STRESS PERIOD

 REUSING RCHS FROM LAST STRESS PERIOD

 REUSING CHDS FROM LAST STRESS PERIOD
 UBDSV1 SAVING     FLOW-JA-FACE ON UNIT   1015 AT TIME STEP      1, STRESS PERIOD     24
 UBDSV06 SAVING              WEL IN MODEL MUMODEL          PACKAGE MUMODEL         CONNECTED TO MODEL MUMODEL          PACKAGE WEL-1            ON UNIT   1015 AT TIME STEP      1, STRESS PERIOD     24
 UBDSV06 SAVING             RCHA IN MODEL MUMODEL          PACKAGE MUMODEL         CONNECTED TO MODEL MUMODEL          PACKAGE RCH-1            ON UNIT   1015 AT TIME STEP      1, STRESS PERIOD     24

 WEL PACKAGE (WEL-1) FLOW RATES   PERIOD     24   STEP        1
 -----------------------------------------------
   NUMBER   CELLID                    RATE      
 -----------------------------------------------
     1      (1,5,5)              -20000.000     
     2      (1,11,5)              0.0000000     
     3      (1,5,5)               0.0000000     
 -----------------------------------------------




 CHD PACKAGE (CHD-FROM-IBOUND) FLOW RATES   PERIOD     24   STEP        1
 -----------------------------------------------
   NUMBER   CELLID                    RATE      
 -----------------------------------------------
     1      (1,1,1)              -2614.1053     
     2      (1,1,2)              -2613.8270     
     3      (1,1,3)              -2612.1911     
     4      (1,1,4)              -2605.6714     
     5      (1,1,5)              -2593.1781     
     6      (1,1,6)              -2605.6697     
     7      (1,1,7)              -2612.1878     
     8      (1,1,8)              -2613.8226     
     9      (1,1,9)              -2614.1004     
     10     (1,21,1)             -2614.1492     
     11     (1,21,2)             -2614.1502     
     12     (1,21,3)             -2614.1514     
     13     (1,21,4)             -2614.1526     
     14     (1,21,5)             -2614.1536     
     15     (1,21,6)             -2614.1543     
     16     (1,21,7)             -2614.1543     
     17     (1,21,8)             -2614.1534     
     18     (1,21,9)             -2614.1523     
 -----------------------------------------------




 HEAD WILL BE SAVED ON UNIT 1016 AT END OF TIME STEP    1, STRESS PERIOD   24


  VOLUME BUDGET FOR ENTIRE MODEL AT END OF TIME STEP    1, STRESS PERIOD  24
  ---------------------------------------------------------------------------------------------------

     CUMULATIVE VOLUME      L**3       RATES FOR THIS TIME STEP      L**3/T          PACKAGE NAME    
     ------------------                 ------------------------                     ----------------

           IN:                                      IN:
           ---                                      ---
              STO-SS =    16722904.0932                STO-SS =       60457.4953     STORAGE                          
              STO-SY =      632377.8576                STO-SY =        2279.6294     STORAGE                          
                 WEL =           0.0000                   WEL =           0.0000     WEL-1                            
                RCHA =    66680673.1584                  RCHA =        4275.0000     RCH-1                            
                 CHD =           0.0000                   CHD =           0.0000     CHD-FROM-IBOUND                  

            TOTAL IN =    84035955.1092              TOTAL IN =       67012.1248

          OUT:                                     OUT:
          ----                                     ----
              STO-SS =    45065158.4270                STO-SS =           0.0000     STORAGE                          
              STO-SY =     1649632.5699                STO-SY =           0.0000     STORAGE                          
                 WEL =     6116365.6534                   WEL =       20000.0000     WEL-1                            
                RCHA =           0.0000                  RCHA =           0.0000     RCH-1                            
                 CHD =    31204804.7614                   CHD =       47012.1248     CHD-FROM-IBOUND                  

           TOTAL OUT =    84035961.4118             TOTAL OUT =       67012.1248

            IN - OUT =          -6.3026              IN - OUT =      -4.2666E-05

 PERCENT DISCREPANCY =          -0.00     PERCENT DISCREPANCY =          -0.00




         TIME SUMMARY AT END OF TIME STEP    1 IN STRESS PERIOD   24
                    SECONDS     MINUTES      HOURS       DAYS        YEARS
                    -----------------------------------------------------------
   TIME STEP LENGTH 1.57100E+05  2618.3      43.639      1.8183     4.97819E-03
 STRESS PERIOD TIME 1.57100E+05  2618.3      43.639      1.8183     4.97819E-03
         TOTAL TIME 5.80451E+07 9.67418E+05  16124.      671.82      1.8393    


end timestep


start timestep kper="24" kstp="2" mode="normal"

 UBDSV1 SAVING     FLOW-JA-FACE ON UNIT   1015 AT TIME STEP      2, STRESS PERIOD     24
 UBDSV06 SAVING              WEL IN MODEL MUMODEL          PACKAGE MUMODEL         CONNECTED TO MODEL MUMODEL          PACKAGE WEL-1            ON UNIT   1015 AT TIME STEP      2, STRESS PERIOD     24
 UBDSV06 SAVING             RCHA IN MODEL MUMODEL          PACKAGE MUMODEL         CONNECTED TO MODEL MUMODEL          PACKAGE RCH-1            ON UNIT   1015 AT TIME STEP      2, STRESS PERIOD     24

 WEL PACKAGE (WEL-1) FLOW RATES   PERIOD     24   STEP        2
 -----------------------------------------------
   NUMBER   CELLID                    RATE      
 -----------------------------------------------
     1      (1,5,5)              -20000.000     
     2      (1,11,5)              0.0000000     
     3      (1,5,5)               0.0000000     
 -----------------------------------------------




 CHD PACKAGE (CHD-FROM-IBOUND) FLOW RATES   PERIOD     24   STEP        2
 -----------------------------------------------
   NUMBER   CELLID                    RATE      
 -----------------------------------------------
     1      (1,1,1)              -2612.7077     
     2      (1,1,2)              -2612.4198     
     3      (1,1,3)              -2610.7373     
     4      (1,1,4)              -2604.0729     
     5      (1,1,5)              -2591.3864     
     6      (1,1,6)              -2604.0712     
     7      (1,1,7)              -2610.7340     
     8      (1,1,8)              -2612.4154     
     9      (1,1,9)              -2612.7029     
     10     (1,21,1)             -2612.7536     
     11     (1,21,2)             -2612.7546     
     12     (1,21,3)             -2612.7559     
     13     (1,21,4)             -2612.7570     
     14     (1,21,5)             -2612.7580     
     15     (1,21,6)             -2612.7587     
     16     (1,21,7)             -2612.7587     
     17     (1,21,8)             -2612.7578     
     18     (1,21,9)             -2612.7567     
 -----------------------------------------------




 HEAD WILL BE SAVED ON UNIT 1016 AT END OF TIME STEP    2, STRESS PERIOD   24


  VOLUME BUDGET FOR ENTIRE MODEL AT END OF TIME STEP    2, STRESS PERIOD  24
  ---------------------------------------------------------------------------------------------------

     CUMULATIVE VOLUME      L**3       RATES FOR THIS TIME STEP      L**3/T          PACKAGE NAME    
     ------------------                 ------------------------                     ----------------

           IN:                                      IN:
           ---                                      ---
              STO-SS =    16854764.1105                STO-SS =       60432.4891     STORAGE                          
              STO-SY =      637349.5575                STO-SY =        2278.5694     STORAGE                          
                 WEL =           0.0000                   WEL =           0.0000     WEL-1                            
                RCHA =    66690000.9485                  RCHA =        4275.0000     RCH-1                            
                 CHD =           0.0000                   CHD =           0.0000     CHD-FROM-IBOUND                  

            TOTAL IN =    84182114.6166              TOTAL IN =       66986.0585

          OUT:                                     OUT:
          ----                                     ----
              STO-SS =    45065158.4270                STO-SS =           0.0000     STORAGE                          
              STO-SY =     1649632.5699                STO-SY =           0.0000     STORAGE                          
                 WEL =     6160004.4376                   WEL =       20000.0000     WEL-1                            
                RCHA =           0.0000                  RCHA =           0.0000     RCH-1                            
                 CHD =    31307325.4848                   CHD =       46986.0586     CHD-FROM-IBOUND                  

           TOTAL OUT =    84182120.9193             TOTAL OUT =       66986.0586

            IN - OUT =          -6.3027              IN - OUT =      -7.5395E-05

 PERCENT DISCREPANCY =          -0.00     PERCENT DISCREPANCY =          -0.00




         TIME SUMMARY AT END OF TIME STEP    2 IN STRESS PERIOD   24
                    SECONDS     MINUTES      HOURS       DAYS        YEARS
                    -----------------------------------------------------------
   TIME STEP LENGTH 1.88520E+05  3142.0      52.367      2.1819     5.97382E-03
 STRESS PERIOD TIME 3.45619E+05  5760.3      96.005      4.0002     1.09520E-02
         TOTAL TIME 5.82336E+07 9.70560E+05  16176.      674.00      1.8453    


end timestep


start timestep kper="24" kstp="3" mode="normal"

 UBDSV1 SAVING     FLOW-JA-FACE ON UNIT   1015 AT TIME STEP      3, STRESS PERIOD     24
 UBDSV06 SAVING              WEL IN MODEL MUMODEL          PACKAGE MUMODEL         CONNECTED TO MODEL MUMODEL          PACKAGE WEL-1            ON UNIT   1015 AT TIME STEP      3, STRESS PERIOD     24
 UBDSV06 SAVING             RCHA IN MODEL MUMODEL          PACKAGE MUMODEL         CONNECTED TO MODEL MUMODEL          PACKAGE RCH-1            ON UNIT   1015 AT TIME STEP      3, STRESS PERIOD     24

 WEL PACKAGE (WEL-1) FLOW RATES   PERIOD     24   STEP        3
 -----------------------------------------------
   NUMBER   CELLID                    RATE      
 -----------------------------------------------
     1      (1,5,5)              -20000.000     
     2      (1,11,5)              0.0000000     
     3      (1,5,5)               0.0000000     
 -----------------------------------------------




 CHD PACKAGE (CHD-FROM-IBOUND) FLOW RATES   PERIOD     24   STEP        3
 -----------------------------------------------
   NUMBER   CELLID                    RATE      
 -----------------------------------------------
     1      (1,1,1)              -2611.0394     
     2      (1,1,2)              -2610.7396     
     3      (1,1,3)              -2608.9999     
     4      (1,1,4)              -2602.1594     
     5      (1,1,5)              -2589.2399     
     6      (1,1,6)              -2602.1576     
     7      (1,1,7)              -2608.9966     
     8      (1,1,8)              -2610.7353     
     9      (1,1,9)              -2611.0346     
     10     (1,21,1)             -2611.0879     
     11     (1,21,2)             -2611.0888     
     12     (1,21,3)             -2611.0901     
     13     (1,21,4)             -2611.0913     
     14     (1,21,5)             -2611.0923     
     15     (1,21,6)             -2611.0930     
     16     (1,21,7)             -2611.0929     
     17     (1,21,8)             -2611.0920     
     18     (1,21,9)             -2611.0910     
 -----------------------------------------------




 HEAD WILL BE SAVED ON UNIT 1016 AT END OF TIME STEP    3, STRESS PERIOD   24


  VOLUME BUDGET FOR ENTIRE MODEL AT END OF TIME STEP    3, STRESS PERIOD  24
  ---------------------------------------------------------------------------------------------------

     CUMULATIVE VOLUME      L**3       RATES FOR THIS TIME STEP      L**3/T          PACKAGE NAME    
     ------------------                 ------------------------                     ----------------

           IN:                                      IN:
           ---                                      ---
              STO-SS =    17012917.9168                STO-SS =       60402.6172     STORAGE                          
              STO-SY =      643312.2852                STO-SY =        2277.3044     STORAGE                          
                 WEL =           0.0000                   WEL =           0.0000     WEL-1                            
                RCHA =    66701194.2967                  RCHA =        4275.0000     RCH-1                            
                 CHD =           0.0000                   CHD =           0.0000     CHD-FROM-IBOUND                  

            TOTAL IN =    84357424.4987              TOTAL IN =       66954.9215

          OUT:                                     OUT:
          ----                                     ----
              STO-SS =    45065158.4270                STO-SS =           0.0000     STORAGE                          
              STO-SY =     1649632.5699                STO-SY =           0.0000     STORAGE                          
                 WEL =     6212370.9785                   WEL =       20000.0000     WEL-1                            
                RCHA =           0.0000                  RCHA =           0.0000     RCH-1                            
                 CHD =    31430268.8263                   CHD =       46954.9217     CHD-FROM-IBOUND                  

           TOTAL OUT =    84357430.8017             TOTAL OUT =       66954.9217

            IN - OUT =          -6.3031              IN - OUT =      -1.3126E-04

 PERCENT DISCREPANCY =          -0.00     PERCENT DISCREPANCY =          -0.00




         TIME SUMMARY AT END OF TIME STEP    3 IN STRESS PERIOD   24
                    SECONDS     MINUTES      HOURS       DAYS        YEARS
                    -----------------------------------------------------------
   TIME STEP LENGTH 2.26223E+05  3770.4      62.840      2.6183     7.16859E-03
 STRESS PERIOD TIME 5.71843E+05  9530.7      158.85      6.6185     1.81206E-02
         TOTAL TIME 5.84598E+07 9.74331E+05  16239.      676.62      1.8525    


end timestep


start timestep kper="24" kstp="4" mode="normal"

 UBDSV1 SAVING     FLOW-JA-FACE ON UNIT   1015 AT TIME STEP      4, STRESS PERIOD     24
 UBDSV06 SAVING              WEL IN MODEL MUMODEL          PACKAGE MUMODEL         CONNECTED TO MODEL MUMODEL          PACKAGE WEL-1            ON UNIT   1015 AT TIME STEP      4, STRESS PERIOD     24
 UBDSV06 SAVING             RCHA IN MODEL MUMODEL          PACKAGE MUMODEL         CONNECTED TO MODEL MUMODEL          PACKAGE RCH-1            ON UNIT   1015 AT TIME STEP      4, STRESS PERIOD     24

 WEL PACKAGE (WEL-1) FLOW RATES   PERIOD     24   STEP        4
 -----------------------------------------------
   NUMBER   CELLID                    RATE      
 -----------------------------------------------
     1      (1,5,5)              -20000.000     
     2      (1,11,5)              0.0000000     
     3      (1,5,5)               0.0000000     
 -----------------------------------------------




 CHD PACKAGE (CHD-FROM-IBOUND) FLOW RATES   PERIOD     24   STEP        4
 -----------------------------------------------
   NUMBER   CELLID                    RATE      
 -----------------------------------------------
     1      (1,1,1)              -2609.0501     
     2      (1,1,2)              -2608.7355     
     3      (1,1,3)              -2606.9253     
     4      (1,1,4)              -2599.8697     
     5      (1,1,5)              -2586.6689     
     6      (1,1,6)              -2599.8679     
     7      (1,1,7)              -2606.9220     
     8      (1,1,8)              -2608.7312     
     9      (1,1,9)              -2609.0453     
     10     (1,21,1)             -2609.1017     
     11     (1,21,2)             -2609.1027     
     12     (1,21,3)             -2609.1039     
     13     (1,21,4)             -2609.1051     
     14     (1,21,5)             -2609.1061     
     15     (1,21,6)             -2609.1068     
     16     (1,21,7)             -2609.1068     
     17     (1,21,8)             -2609.1059     
     18     (1,21,9)             -2609.1048     
 -----------------------------------------------




 HEAD WILL BE SAVED ON UNIT 1016 AT END OF TIME STEP    4, STRESS PERIOD   24


  VOLUME BUDGET FOR ENTIRE MODEL AT END OF TIME STEP    4, STRESS PERIOD  24
  ---------------------------------------------------------------------------------------------------

     CUMULATIVE VOLUME      L**3       RATES FOR THIS TIME STEP      L**3/T          PACKAGE NAME    
     ------------------                 ------------------------                     ----------------

           IN:                                      IN:
           ---                                      ---
              STO-SS =    17202590.4601                STO-SS =       60366.9633     STORAGE                          
              STO-SY =      650462.8199                STO-SY =        2275.7963     STORAGE                          
                 WEL =           0.0000                   WEL =           0.0000     WEL-1                            
                RCHA =    66714626.3144                  RCHA =        4275.0000     RCH-1                            
                 CHD =           0.0000                   CHD =           0.0000     CHD-FROM-IBOUND                  

            TOTAL IN =    84567679.5944              TOTAL IN =       66917.7595

          OUT:                                     OUT:
          ----                                     ----
              STO-SS =    45065158.4270                STO-SS =           0.0000     STORAGE                          
              STO-SY =     1649632.5699                STO-SY =           0.0000     STORAGE                          
                 WEL =     6275210.8277                   WEL =       20000.0000     WEL-1                            
                RCHA =           0.0000                  RCHA =           0.0000     RCH-1                            
                 CHD =    31577684.0736                   CHD =       46917.7598     CHD-FROM-IBOUND                  

           TOTAL OUT =    84567685.8982             TOTAL OUT =       66917.7598

            IN - OUT =          -6.3038              IN - OUT =      -2.2569E-04

 PERCENT DISCREPANCY =          -0.00     PERCENT DISCREPANCY =          -0.00




         TIME SUMMARY AT END OF TIME STEP    4 IN STRESS PERIOD   24
                    SECONDS     MINUTES      HOURS       DAYS        YEARS
                    -----------------------------------------------------------
   TIME STEP LENGTH 2.71468E+05  4524.5      75.408      3.1420     8.60231E-03
 STRESS PERIOD TIME 8.43311E+05  14055.      234.25      9.7605     2.67229E-02
         TOTAL TIME 5.87313E+07 9.78855E+05  16314.      679.76      1.8611    


end timestep


start timestep kper="24" kstp="5" mode="normal"

 UBDSV1 SAVING     FLOW-JA-FACE ON UNIT   1015 AT TIME STEP      5, STRESS PERIOD     24
 UBDSV06 SAVING              WEL IN MODEL MUMODEL          PACKAGE MUMODEL         CONNECTED TO MODEL MUMODEL          PACKAGE WEL-1            ON UNIT   1015 AT TIME STEP      5, STRESS PERIOD     24
 UBDSV06 SAVING             RCHA IN MODEL MUMODEL          PACKAGE MUMODEL         CONNECTED TO MODEL MUMODEL          PACKAGE RCH-1            ON UNIT   1015 AT TIME STEP      5, STRESS PERIOD     24

 WEL PACKAGE (WEL-1) FLOW RATES   PERIOD     24   STEP        5
 -----------------------------------------------
   NUMBER   CELLID                    RATE      
 -----------------------------------------------
     1      (1,5,5)              -20000.000     
     2      (1,11,5)              0.0000000     
     3      (1,5,5)               0.0000000     
 -----------------------------------------------




 CHD PACKAGE (CHD-FROM-IBOUND) FLOW RATES   PERIOD     24   STEP        5
 -----------------------------------------------
   NUMBER   CELLID                    RATE      
 -----------------------------------------------
     1      (1,1,1)              -2606.6808     
     2      (1,1,2)              -2606.3477     
     3      (1,1,3)              -2604.4502     
     4      (1,1,4)              -2597.1312     
     5      (1,1,5)              -2583.5904     
     6      (1,1,6)              -2597.1295     
     7      (1,1,7)              -2604.4469     
     8      (1,1,8)              -2606.3434     
     9      (1,1,9)              -2606.6761     
     10     (1,21,1)             -2606.7364     
     11     (1,21,2)             -2606.7374     
     12     (1,21,3)             -2606.7387     
     13     (1,21,4)             -2606.7398     
     14     (1,21,5)             -2606.7408     
     15     (1,21,6)             -2606.7415     
     16     (1,21,7)             -2606.7415     
     17     (1,21,8)             -2606.7406     
     18     (1,21,9)             -2606.7395     
 -----------------------------------------------




 HEAD WILL BE SAVED ON UNIT 1016 AT END OF TIME STEP    5, STRESS PERIOD   24


  VOLUME BUDGET FOR ENTIRE MODEL AT END OF TIME STEP    5, STRESS PERIOD  24
  ---------------------------------------------------------------------------------------------------

     CUMULATIVE VOLUME      L**3       RATES FOR THIS TIME STEP      L**3/T          PACKAGE NAME    
     ------------------                 ------------------------                     ----------------

           IN:                                      IN:
           ---                                      ---
              STO-SS =    17430037.2252                STO-SS =       60324.4513     STORAGE                          
              STO-SY =      659036.6912                STO-SY =        2274.0006     STORAGE                          
                 WEL =           0.0000                   WEL =           0.0000     WEL-1                            
                RCHA =    66730744.7357                  RCHA =        4275.0000     RCH-1                            
                 CHD =           0.0000                   CHD =           0.0000     CHD-FROM-IBOUND                  

            TOTAL IN =    84819818.6522              TOTAL IN =       66873.4519

          OUT:                                     OUT:
          ----                                     ----
              STO-SS =    45065158.4270                STO-SS =           0.0000     STORAGE                          
              STO-SY =     1649632.5699                STO-SY =           0.0000     STORAGE                          
                 WEL =     6350618.6467                   WEL =       20000.0000     WEL-1                            
                RCHA =           0.0000                  RCHA =           0.0000     RCH-1                            
                 CHD =    31754415.3138                   CHD =       46873.4523     CHD-FROM-IBOUND                  

           TOTAL OUT =    84819824.9574             TOTAL OUT =       66873.4523

            IN - OUT =          -6.3052              IN - OUT =      -3.8100E-04

 PERCENT DISCREPANCY =          -0.00     PERCENT DISCREPANCY =          -0.00




         TIME SUMMARY AT END OF TIME STEP    5 IN STRESS PERIOD   24
                    SECONDS     MINUTES      HOURS       DAYS        YEARS
                    -----------------------------------------------------------
   TIME STEP LENGTH 3.25762E+05  5429.4      90.489      3.7704     1.03228E-02
 STRESS PERIOD TIME 1.16907E+06  19485.      324.74      13.531     3.70457E-02
         TOTAL TIME 5.90571E+07 9.84285E+05  16405.      683.53      1.8714    


end timestep


start timestep kper="24" kstp="6" mode="normal"

 UBDSV1 SAVING     FLOW-JA-FACE ON UNIT   1015 AT TIME STEP      6, STRESS PERIOD     24
 UBDSV06 SAVING              WEL IN MODEL MUMODEL          PACKAGE MUMODEL         CONNECTED TO MODEL MUMODEL          PACKAGE WEL-1            ON UNIT   1015 AT TIME STEP      6, STRESS PERIOD     24
 UBDSV06 SAVING             RCHA IN MODEL MUMODEL          PACKAGE MUMODEL         CONNECTED TO MODEL MUMODEL          PACKAGE RCH-1            ON UNIT   1015 AT TIME STEP      6, STRESS PERIOD     24

 WEL PACKAGE (WEL-1) FLOW RATES   PERIOD     24   STEP        6
 -----------------------------------------------
   NUMBER   CELLID                    RATE      
 -----------------------------------------------
     1      (1,5,5)              -20000.000     
     2      (1,11,5)              0.0000000     
     3      (1,5,5)               0.0000000     
 -----------------------------------------------




 CHD PACKAGE (CHD-FROM-IBOUND) FLOW RATES   PERIOD     24   STEP        6
 -----------------------------------------------
   NUMBER   CELLID                    RATE      
 -----------------------------------------------
     1      (1,1,1)              -2603.8630     
     2      (1,1,2)              -2603.5065     
     3      (1,1,3)              -2601.5002     
     4      (1,1,4)              -2593.8578     
     5      (1,1,5)              -2579.9057     
     6      (1,1,6)              -2593.8560     
     7      (1,1,7)              -2601.4970     
     8      (1,1,8)              -2603.5022     
     9      (1,1,9)              -2603.8582     
     10     (1,21,1)             -2603.9237     
     11     (1,21,2)             -2603.9247     
     12     (1,21,3)             -2603.9259     
     13     (1,21,4)             -2603.9271     
     14     (1,21,5)             -2603.9281     
     15     (1,21,6)             -2603.9288     
     16     (1,21,7)             -2603.9287     
     17     (1,21,8)             -2603.9278     
     18     (1,21,9)             -2603.9268     
 -----------------------------------------------




 HEAD WILL BE SAVED ON UNIT 1016 AT END OF TIME STEP    6, STRESS PERIOD   24


  VOLUME BUDGET FOR ENTIRE MODEL AT END OF TIME STEP    6, STRESS PERIOD  24
  ---------------------------------------------------------------------------------------------------

     CUMULATIVE VOLUME      L**3       RATES FOR THIS TIME STEP      L**3/T          PACKAGE NAME    
     ------------------                 ------------------------                     ----------------

           IN:                                      IN:
           ---                                      ---
              STO-SS =    17702744.2751                STO-SS =       60273.8225     STORAGE                          
              STO-SY =      669315.6777                STO-SY =        2271.8658     STORAGE                          
                 WEL =           0.0000                   WEL =           0.0000     WEL-1                            
                RCHA =    66750086.8413                  RCHA =        4275.0000     RCH-1                            
                 CHD =           0.0000                   CHD =           0.0000     CHD-FROM-IBOUND                  

            TOTAL IN =    85122146.7941              TOTAL IN =       66820.6883

          OUT:                                     OUT:
          ----                                     ----
              STO-SS =    45065158.4270                STO-SS =           0.0000     STORAGE                          
              STO-SY =     1649632.5699                STO-SY =           0.0000     STORAGE                          
                 WEL =     6441108.0295                   WEL =       20000.0000     WEL-1                            
                RCHA =           0.0000                  RCHA =           0.0000     RCH-1                            
                 CHD =    31966254.0732                   CHD =       46820.6883     CHD-FROM-IBOUND                  

           TOTAL OUT =    85122153.0996             TOTAL OUT =       66820.6883

            IN - OUT =          -6.3054              IN - OUT =      -4.2253E-05

 PERCENT DISCREPANCY =          -0.00     PERCENT DISCREPANCY =          -0.00




         TIME SUMMARY AT END OF TIME STEP    6 IN STRESS PERIOD   24
                    SECONDS     MINUTES      HOURS       DAYS        YEARS
                    -----------------------------------------------------------
   TIME STEP LENGTH 3.90914E+05  6515.2      108.59      4.5245     1.23873E-02
 STRESS PERIOD TIME 1.55999E+06  26000.      433.33      18.055     4.94330E-02
         TOTAL TIME 5.94480E+07 9.90800E+05  16513.      688.06      1.8838    


end timestep


start timestep kper="24" kstp="7" mode="normal"

 UBDSV1 SAVING     FLOW-JA-FACE ON UNIT   1015 AT TIME STEP      7, STRESS PERIOD     24
 UBDSV06 SAVING              WEL IN MODEL MUMODEL          PACKAGE MUMODEL         CONNECTED TO MODEL MUMODEL          PACKAGE WEL-1            ON UNIT   1015 AT TIME STEP      7, STRESS PERIOD     24
 UBDSV06 SAVING             RCHA IN MODEL MUMODEL          PACKAGE MUMODEL         CONNECTED TO MODEL MUMODEL          PACKAGE RCH-1            ON UNIT   1015 AT TIME STEP      7, STRESS PERIOD     24

 WEL PACKAGE (WEL-1) FLOW RATES   PERIOD     24   STEP        7
 -----------------------------------------------
   NUMBER   CELLID                    RATE      
 -----------------------------------------------
     1      (1,5,5)              -20000.000     
     2      (1,11,5)              0.0000000     
     3      (1,5,5)               0.0000000     
 -----------------------------------------------




 CHD PACKAGE (CHD-FROM-IBOUND) FLOW RATES   PERIOD     24   STEP        7
 -----------------------------------------------
   NUMBER   CELLID                    RATE      
 -----------------------------------------------
     1      (1,1,1)              -2600.5173     
     2      (1,1,2)              -2600.1310     
     3      (1,1,3)              -2597.9885     
     4      (1,1,4)              -2589.9471     
     5      (1,1,5)              -2575.4971     
     6      (1,1,6)              -2589.9454     
     7      (1,1,7)              -2597.9853     
     8      (1,1,8)              -2600.1268     
     9      (1,1,9)              -2600.5126     
     10     (1,21,1)             -2600.5847     
     11     (1,21,2)             -2600.5857     
     12     (1,21,3)             -2600.5869     
     13     (1,21,4)             -2600.5881     
     14     (1,21,5)             -2600.5890     
     15     (1,21,6)             -2600.5897     
     16     (1,21,7)             -2600.5897     
     17     (1,21,8)             -2600.5888     
     18     (1,21,9)             -2600.5877     
 -----------------------------------------------




 HEAD WILL BE SAVED ON UNIT 1016 AT END OF TIME STEP    7, STRESS PERIOD   24


  VOLUME BUDGET FOR ENTIRE MODEL AT END OF TIME STEP    7, STRESS PERIOD  24
  ---------------------------------------------------------------------------------------------------

     CUMULATIVE VOLUME      L**3       RATES FOR THIS TIME STEP      L**3/T          PACKAGE NAME    
     ------------------                 ------------------------                     ----------------

           IN:                                      IN:
           ---                                      ---
              STO-SS =    18029665.8162                STO-SS =       60213.6094     STORAGE                          
              STO-SY =      681636.7046                STO-SY =        2269.3319     STORAGE                          
                 WEL =           0.0000                   WEL =           0.0000     WEL-1                            
                RCHA =    66773297.3680                  RCHA =        4275.0000     RCH-1                            
                 CHD =           0.0000                   CHD =           0.0000     CHD-FROM-IBOUND                  

            TOTAL IN =    85484599.8887              TOTAL IN =       66757.9414

          OUT:                                     OUT:
          ----                                     ----
              STO-SS =    45065158.4270                STO-SS =           0.0000     STORAGE                          
              STO-SY =     1649632.5699                STO-SY =           0.0000     STORAGE                          
                 WEL =     6549695.2888                   WEL =       20000.0000     WEL-1                            
                RCHA =           0.0000                  RCHA =           0.0000     RCH-1                            
                 CHD =    32220119.9088                   CHD =       46757.9414     CHD-FROM-IBOUND                  

           TOTAL OUT =    85484606.1945             TOTAL OUT =       66757.9414

            IN - OUT =          -6.3058              IN - OUT =      -6.9686E-05

 PERCENT DISCREPANCY =          -0.00     PERCENT DISCREPANCY =          -0.00




         TIME SUMMARY AT END OF TIME STEP    7 IN STRESS PERIOD   24
                    SECONDS     MINUTES      HOURS       DAYS        YEARS
                    -----------------------------------------------------------
   TIME STEP LENGTH 4.69097E+05  7818.3      130.30      5.4294     1.48648E-02
 STRESS PERIOD TIME 2.02908E+06  33818.      563.63      23.485     6.42978E-02
         TOTAL TIME 5.99171E+07 9.98618E+05  16644.      693.48      1.8987    


end timestep


start timestep kper="24" kstp="8" mode="normal"

 UBDSV1 SAVING     FLOW-JA-FACE ON UNIT   1015 AT TIME STEP      8, STRESS PERIOD     24
 UBDSV06 SAVING              WEL IN MODEL MUMODEL          PACKAGE MUMODEL         CONNECTED TO MODEL MUMODEL          PACKAGE WEL-1            ON UNIT   1015 AT TIME STEP      8, STRESS PERIOD     24
 UBDSV06 SAVING             RCHA IN MODEL MUMODEL          PACKAGE MUMODEL         CONNECTED TO MODEL MUMODEL          PACKAGE RCH-1            ON UNIT   1015 AT TIME STEP      8, STRESS PERIOD     24

 WEL PACKAGE (WEL-1) FLOW RATES   PERIOD     24   STEP        8
 -----------------------------------------------
   NUMBER   CELLID                    RATE      
 -----------------------------------------------
     1      (1,5,5)              -20000.000     
     2      (1,11,5)              0.0000000     
     3      (1,5,5)               0.0000000     
 -----------------------------------------------




 CHD PACKAGE (CHD-FROM-IBOUND) FLOW RATES   PERIOD     24   STEP        8
 -----------------------------------------------
   NUMBER   CELLID                    RATE      
 -----------------------------------------------
     1      (1,1,1)              -2596.5526     
     2      (1,1,2)              -2596.1282     
     3      (1,1,3)              -2593.8137     
     4      (1,1,4)              -2585.2783     
     5      (1,1,5)              -2570.2247     
     6      (1,1,6)              -2585.2766     
     7      (1,1,7)              -2593.8105     
     8      (1,1,8)              -2596.1239     
     9      (1,1,9)              -2596.5479     
     10     (1,21,1)             -2596.6288     
     11     (1,21,2)             -2596.6298     
     12     (1,21,3)             -2596.6310     
     13     (1,21,4)             -2596.6321     
     14     (1,21,5)             -2596.6331     
     15     (1,21,6)             -2596.6338     
     16     (1,21,7)             -2596.6337     
     17     (1,21,8)             -2596.6328     
     18     (1,21,9)             -2596.6318     
 -----------------------------------------------




 HEAD WILL BE SAVED ON UNIT 1016 AT END OF TIME STEP    8, STRESS PERIOD   24


  VOLUME BUDGET FOR ENTIRE MODEL AT END OF TIME STEP    8, STRESS PERIOD  24
  ---------------------------------------------------------------------------------------------------

     CUMULATIVE VOLUME      L**3       RATES FOR THIS TIME STEP      L**3/T          PACKAGE NAME    
     ------------------                 ------------------------                     ----------------

           IN:                                      IN:
           ---                                      ---
              STO-SS =    18421505.8466                STO-SS =       60142.1126     STORAGE                          
              STO-SY =      696402.3825                STO-SY =        2266.3306     STORAGE                          
                 WEL =           0.0000                   WEL =           0.0000     WEL-1                            
                RCHA =    66801150.0000                  RCHA =        4275.0000     RCH-1                            
                 CHD =           0.0000                   CHD =           0.0000     CHD-FROM-IBOUND                  

            TOTAL IN =    85919058.2291              TOTAL IN =       66683.4432

          OUT:                                     OUT:
          ----                                     ----
              STO-SS =    45065158.4270                STO-SS =           0.0000     STORAGE                          
              STO-SY =     1649632.5699                STO-SY =           0.0000     STORAGE                          
                 WEL =     6680000.0000                   WEL =       20000.0000     WEL-1                            
                RCHA =           0.0000                  RCHA =           0.0000     RCH-1                            
                 CHD =    32524273.5387                   CHD =       46683.4433     CHD-FROM-IBOUND                  

           TOTAL OUT =    85919064.5357             TOTAL OUT =       66683.4433

            IN - OUT =          -6.3065              IN - OUT =      -1.1668E-04

 PERCENT DISCREPANCY =          -0.00     PERCENT DISCREPANCY =          -0.00




         TIME SUMMARY AT END OF TIME STEP    8 IN STRESS PERIOD   24
                    SECONDS     MINUTES      HOURS       DAYS        YEARS
                    -----------------------------------------------------------
   TIME STEP LENGTH 5.62916E+05  9381.9      156.37      6.5152     1.78377E-02
 STRESS PERIOD TIME 2.59200E+06  43200.      720.00      30.000     8.21355E-02
         TOTAL TIME 6.04800E+07 1.00800E+06  16800.      700.00      1.9165    


end timestep


start timestep kper="25" kstp="1" mode="normal"


 OUTPUT CONTROL FOR STRESS PERIOD 25 IS REPEATED USING SETTINGS FROM A PREVIOUS STRESS PERIOD.


 STRESS PERIOD 25 IS TRANSIENT


 REUSING WELS FROM LAST STRESS PERIOD

 REUSING CHDS FROM LAST STRESS PERIOD
 UBDSV1 SAVING     FLOW-JA-FACE ON UNIT   1015 AT TIME STEP      1, STRESS PERIOD     25
 UBDSV06 SAVING              WEL IN MODEL MUMODEL          PACKAGE MUMODEL         CONNECTED TO MODEL MUMODEL          PACKAGE WEL-1            ON UNIT   1015 AT TIME STEP      1, STRESS PERIOD     25
 UBDSV06 SAVING             RCHA IN MODEL MUMODEL          PACKAGE MUMODEL         CONNECTED TO MODEL MUMODEL          PACKAGE RCH-1            ON UNIT   1015 AT TIME STEP      1, STRESS PERIOD     25

 WEL PACKAGE (WEL-1) FLOW RATES   PERIOD     25   STEP        1
 -----------------------------------------------
   NUMBER   CELLID                    RATE      
 -----------------------------------------------
     1      (1,5,5)              -20000.000     
     2      (1,11,5)              0.0000000     
     3      (1,5,5)               0.0000000     
 -----------------------------------------------




 CHD PACKAGE (CHD-FROM-IBOUND) FLOW RATES   PERIOD     25   STEP        1
 -----------------------------------------------
   NUMBER   CELLID                    RATE      
 -----------------------------------------------
     1      (1,1,1)              -2596.2124     
     2      (1,1,2)              -2595.7767     
     3      (1,1,3)              -2593.4119     
     4      (1,1,4)              -2584.7328     
     5      (1,1,5)              -2569.5046     
     6      (1,1,6)              -2584.7311     
     7      (1,1,7)              -2593.4087     
     8      (1,1,8)              -2595.7725     
     9      (1,1,9)              -2596.2077     
     10     (1,21,1)             -2596.2912     
     11     (1,21,2)             -2596.2922     
     12     (1,21,3)             -2596.2934     
     13     (1,21,4)             -2596.2945     
     14     (1,21,5)             -2596.2955     
     15     (1,21,6)             -2596.2961     
     16     (1,21,7)             -2596.2961     
     17     (1,21,8)             -2596.2952     
     18     (1,21,9)             -2596.2942     
 -----------------------------------------------




 HEAD WILL BE SAVED ON UNIT 1016 AT END OF TIME STEP    1, STRESS PERIOD   25


  VOLUME BUDGET FOR ENTIRE MODEL AT END OF TIME STEP    1, STRESS PERIOD  25
  ---------------------------------------------------------------------------------------------------

     CUMULATIVE VOLUME      L**3       RATES FOR THIS TIME STEP      L**3/T          PACKAGE NAME    
     ------------------                 ------------------------                     ----------------

           IN:                                      IN:
           ---                                      ---
              STO-SS =    18464761.8278                STO-SS =       23022.0678     STORAGE                          
              STO-SY =      698101.5379                STO-SY =         904.3390     STORAGE                          
                 WEL =           0.0000                   WEL =           0.0000     WEL-1                            
                RCHA =    66881472.6370                  RCHA =       42750.0000     RCH-1                            
                 CHD =           0.0000                   CHD =           0.0000     CHD-FROM-IBOUND                  

            TOTAL IN =    86044336.0028              TOTAL IN =       66676.4068

          OUT:                                     OUT:
          ----                                     ----
              STO-SS =    45065158.4270                STO-SS =           0.0000     STORAGE                          
              STO-SY =     1649632.5699                STO-SY =           0.0000     STORAGE                          
                 WEL =     6717577.8419                   WEL =       20000.0000     WEL-1                            
                RCHA =           0.0000                  RCHA =           0.0000     RCH-1                            
                 CHD =    32611973.4706                   CHD =       46676.4069     CHD-FROM-IBOUND                  

           TOTAL OUT =    86044342.3094             TOTAL OUT =       66676.4069

            IN - OUT =          -6.3066              IN - OUT =      -3.3290E-05

 PERCENT DISCREPANCY =          -0.00     PERCENT DISCREPANCY =          -0.00




         TIME SUMMARY AT END OF TIME STEP    1 IN STRESS PERIOD   25
                    SECONDS     MINUTES      HOURS       DAYS        YEARS
                    -----------------------------------------------------------
   TIME STEP LENGTH 1.62336E+05  2705.6      45.093      1.8789     5.14413E-03
 STRESS PERIOD TIME 1.62336E+05  2705.6      45.093      1.8789     5.14413E-03
         TOTAL TIME 6.06423E+07 1.01071E+06  16845.      701.88      1.9216    


end timestep


start timestep kper="25" kstp="2" mode="normal"

 UBDSV1 SAVING     FLOW-JA-FACE ON UNIT   1015 AT TIME STEP      2, STRESS PERIOD     25
 UBDSV06 SAVING              WEL IN MODEL MUMODEL          PACKAGE MUMODEL         CONNECTED TO MODEL MUMODEL          PACKAGE WEL-1            ON UNIT   1015 AT TIME STEP      2, STRESS PERIOD     25
 UBDSV06 SAVING             RCHA IN MODEL MUMODEL          PACKAGE MUMODEL         CONNECTED TO MODEL MUMODEL          PACKAGE RCH-1            ON UNIT   1015 AT TIME STEP      2, STRESS PERIOD     25

 WEL PACKAGE (WEL-1) FLOW RATES   PERIOD     25   STEP        2
 -----------------------------------------------
   NUMBER   CELLID                    RATE      
 -----------------------------------------------
     1      (1,5,5)              -20000.000     
     2      (1,11,5)              0.0000000     
     3      (1,5,5)               0.0000000     
 -----------------------------------------------




 CHD PACKAGE (CHD-FROM-IBOUND) FLOW RATES   PERIOD     25   STEP        2
 -----------------------------------------------
   NUMBER   CELLID                    RATE      
 -----------------------------------------------
     1      (1,1,1)              -2595.8062     
     2      (1,1,2)              -2595.3567     
     3      (1,1,3)              -2592.9305     
     4      (1,1,4)              -2584.0771     
     5      (1,1,5)              -2568.6389     
     6      (1,1,6)              -2584.0754     
     7      (1,1,7)              -2592.9273     
     8      (1,1,8)              -2595.3524     
     9      (1,1,9)              -2595.8015     
     10     (1,21,1)             -2595.8882     
     11     (1,21,2)             -2595.8891     
     12     (1,21,3)             -2595.8903     
     13     (1,21,4)             -2595.8915     
     14     (1,21,5)             -2595.8924     
     15     (1,21,6)             -2595.8931     
     16     (1,21,7)             -2595.8930     
     17     (1,21,8)             -2595.8922     
     18     (1,21,9)             -2595.8912     
 -----------------------------------------------




 HEAD WILL BE SAVED ON UNIT 1016 AT END OF TIME STEP    2, STRESS PERIOD   25


  VOLUME BUDGET FOR ENTIRE MODEL AT END OF TIME STEP    2, STRESS PERIOD  25
  ---------------------------------------------------------------------------------------------------

     CUMULATIVE VOLUME      L**3       RATES FOR THIS TIME STEP      L**3/T          PACKAGE NAME    
     ------------------                 ------------------------                     ----------------

           IN:                                      IN:
           ---                                      ---
              STO-SS =    18516650.8826                STO-SS =       23014.0300     STORAGE                          
              STO-SY =      700139.6627                STO-SY =         903.9568     STORAGE                          
                 WEL =           0.0000                   WEL =           0.0000     WEL-1                            
                RCHA =    66977859.8015                  RCHA =       42750.0000     RCH-1                            
                 CHD =           0.0000                   CHD =           0.0000     CHD-FROM-IBOUND                  

            TOTAL IN =    86194650.3468              TOTAL IN =       66667.9868

          OUT:                                     OUT:
          ----                                     ----
              STO-SS =    45065158.4270                STO-SS =           0.0000     STORAGE                          
              STO-SY =     1649632.5699                STO-SY =           0.0000     STORAGE                          
                 WEL =     6762671.2522                   WEL =       20000.0000     WEL-1                            
                RCHA =           0.0000                  RCHA =           0.0000     RCH-1                            
                 CHD =    32717194.4045                   CHD =       46667.9868     CHD-FROM-IBOUND                  

           TOTAL OUT =    86194656.6536             TOTAL OUT =       66667.9868

            IN - OUT =          -6.3068              IN - OUT =      -6.7298E-05

 PERCENT DISCREPANCY =          -0.00     PERCENT DISCREPANCY =          -0.00




         TIME SUMMARY AT END OF TIME STEP    2 IN STRESS PERIOD   25
                    SECONDS     MINUTES      HOURS       DAYS        YEARS
                    -----------------------------------------------------------
   TIME STEP LENGTH 1.94804E+05  3246.7      54.112      2.2547     6.17295E-03
 STRESS PERIOD TIME 3.57140E+05  5952.3      99.206      4.1336     1.13171E-02
         TOTAL TIME 6.08371E+07 1.01395E+06  16899.      704.13      1.9278    


end timestep


start timestep kper="25" kstp="3" mode="normal"

 UBDSV1 SAVING     FLOW-JA-FACE ON UNIT   1015 AT TIME STEP      3, STRESS PERIOD     25
 UBDSV06 SAVING              WEL IN MODEL MUMODEL          PACKAGE MUMODEL         CONNECTED TO MODEL MUMODEL          PACKAGE WEL-1            ON UNIT   1015 AT TIME STEP      3, STRESS PERIOD     25
 UBDSV06 SAVING             RCHA IN MODEL MUMODEL          PACKAGE MUMODEL         CONNECTED TO MODEL MUMODEL          PACKAGE RCH-1            ON UNIT   1015 AT TIME STEP      3, STRESS PERIOD     25

 WEL PACKAGE (WEL-1) FLOW RATES   PERIOD     25   STEP        3
 -----------------------------------------------
   NUMBER   CELLID                    RATE      
 -----------------------------------------------
     1      (1,5,5)              -20000.000     
     2      (1,11,5)              0.0000000     
     3      (1,5,5)               0.0000000     
 -----------------------------------------------




 CHD PACKAGE (CHD-FROM-IBOUND) FLOW RATES   PERIOD     25   STEP        3
 -----------------------------------------------
   NUMBER   CELLID                    RATE      
 -----------------------------------------------
     1      (1,1,1)              -2595.3214     
     2      (1,1,2)              -2594.8548     
     3      (1,1,3)              -2592.3535     
     4      (1,1,4)              -2583.2884     
     5      (1,1,5)              -2567.5972     
     6      (1,1,6)              -2583.2867     
     7      (1,1,7)              -2592.3503     
     8      (1,1,8)              -2594.8506     
     9      (1,1,9)              -2595.3167     
     10     (1,21,1)             -2595.4074     
     11     (1,21,2)             -2595.4083     
     12     (1,21,3)             -2595.4095     
     13     (1,21,4)             -2595.4106     
     14     (1,21,5)             -2595.4116     
     15     (1,21,6)             -2595.4122     
     16     (1,21,7)             -2595.4122     
     17     (1,21,8)             -2595.4113     
     18     (1,21,9)             -2595.4103     
 -----------------------------------------------




 HEAD WILL BE SAVED ON UNIT 1016 AT END OF TIME STEP    3, STRESS PERIOD   25


  VOLUME BUDGET FOR ENTIRE MODEL AT END OF TIME STEP    3, STRESS PERIOD  25
  ---------------------------------------------------------------------------------------------------

     CUMULATIVE VOLUME      L**3       RATES FOR THIS TIME STEP      L**3/T          PACKAGE NAME    
     ------------------                 ------------------------                     ----------------

           IN:                                      IN:
           ---                                      ---
              STO-SS =    18578891.7280                STO-SS =       23004.4128     STORAGE                          
              STO-SY =      702584.1770                STO-SY =         903.5002     STORAGE                          
                 WEL =           0.0000                   WEL =           0.0000     WEL-1                            
                RCHA =    67093524.3989                  RCHA =       42750.0000     RCH-1                            
                 CHD =           0.0000                   CHD =           0.0000     CHD-FROM-IBOUND                  

            TOTAL IN =    86375000.3039              TOTAL IN =       66657.9130

          OUT:                                     OUT:
          ----                                     ----
              STO-SS =    45065158.4270                STO-SS =           0.0000     STORAGE                          
              STO-SY =     1649632.5699                STO-SY =           0.0000     STORAGE                          
                 WEL =     6816783.3445                   WEL =       20000.0000     WEL-1                            
                RCHA =           0.0000                  RCHA =           0.0000     RCH-1                            
                 CHD =    32843432.2696                   CHD =       46657.9131     CHD-FROM-IBOUND                  

           TOTAL OUT =    86375006.6110             TOTAL OUT =       66657.9131

            IN - OUT =          -6.3071              IN - OUT =      -1.1184E-04

 PERCENT DISCREPANCY =          -0.00     PERCENT DISCREPANCY =          -0.00




         TIME SUMMARY AT END OF TIME STEP    3 IN STRESS PERIOD   25
                    SECONDS     MINUTES      HOURS       DAYS        YEARS
                    -----------------------------------------------------------
   TIME STEP LENGTH 2.33764E+05  3896.1      64.935      2.7056     7.40754E-03
 STRESS PERIOD TIME 5.90904E+05  9848.4      164.14      6.8392     1.87246E-02
         TOTAL TIME 6.10709E+07 1.01785E+06  16964.      706.84      1.9352    


end timestep


start timestep kper="25" kstp="4" mode="normal"

 UBDSV1 SAVING     FLOW-JA-FACE ON UNIT   1015 AT TIME STEP      4, STRESS PERIOD     25
 UBDSV06 SAVING              WEL IN MODEL MUMODEL          PACKAGE MUMODEL         CONNECTED TO MODEL MUMODEL          PACKAGE WEL-1            ON UNIT   1015 AT TIME STEP      4, STRESS PERIOD     25
 UBDSV06 SAVING             RCHA IN MODEL MUMODEL          PACKAGE MUMODEL         CONNECTED TO MODEL MUMODEL          PACKAGE RCH-1            ON UNIT   1015 AT TIME STEP      4, STRESS PERIOD     25

 WEL PACKAGE (WEL-1) FLOW RATES   PERIOD     25   STEP        4
 -----------------------------------------------
   NUMBER   CELLID                    RATE      
 -----------------------------------------------
     1      (1,5,5)              -20000.000     
     2      (1,11,5)              0.0000000     
     3      (1,5,5)               0.0000000     
 -----------------------------------------------




 CHD PACKAGE (CHD-FROM-IBOUND) FLOW RATES   PERIOD     25   STEP        4
 -----------------------------------------------
   NUMBER   CELLID                    RATE      
 -----------------------------------------------
     1      (1,1,1)              -2594.7434     
     2      (1,1,2)              -2594.2558     
     3      (1,1,3)              -2591.6621     
     4      (1,1,4)              -2582.3392     
     5      (1,1,5)              -2566.3431     
     6      (1,1,6)              -2582.3376     
     7      (1,1,7)              -2591.6590     
     8      (1,1,8)              -2594.2516     
     9      (1,1,9)              -2594.7387     
     10     (1,21,1)             -2594.8344     
     11     (1,21,2)             -2594.8353     
     12     (1,21,3)             -2594.8366     
     13     (1,21,4)             -2594.8377     
     14     (1,21,5)             -2594.8386     
     15     (1,21,6)             -2594.8393     
     16     (1,21,7)             -2594.8392     
     17     (1,21,8)             -2594.8384     
     18     (1,21,9)             -2594.8374     
 -----------------------------------------------




 HEAD WILL BE SAVED ON UNIT 1016 AT END OF TIME STEP    4, STRESS PERIOD   25


  VOLUME BUDGET FOR ENTIRE MODEL AT END OF TIME STEP    4, STRESS PERIOD  25
  ---------------------------------------------------------------------------------------------------

     CUMULATIVE VOLUME      L**3       RATES FOR THIS TIME STEP      L**3/T          PACKAGE NAME    
     ------------------                 ------------------------                     ----------------

           IN:                                      IN:
           ---                                      ---
              STO-SS =    18653543.4024                STO-SS =       22992.9119     STORAGE                          
              STO-SY =      705515.8250                STO-SY =         902.9553     STORAGE                          
                 WEL =           0.0000                   WEL =           0.0000     WEL-1                            
                RCHA =    67232321.9157                  RCHA =       42750.0000     RCH-1                            
                 CHD =           0.0000                   CHD =           0.0000     CHD-FROM-IBOUND                  

            TOTAL IN =    86591381.1431              TOTAL IN =       66645.8672

          OUT:                                     OUT:
          ----                                     ----
              STO-SS =    45065158.4270                STO-SS =           0.0000     STORAGE                          
              STO-SY =     1649632.5699                STO-SY =           0.0000     STORAGE                          
                 WEL =     6881717.8553                   WEL =       20000.0000     WEL-1                            
                RCHA =           0.0000                  RCHA =           0.0000     RCH-1                            
                 CHD =    32994878.5986                   CHD =       46645.8674     CHD-FROM-IBOUND                  

           TOTAL OUT =    86591387.4508             TOTAL OUT =       66645.8674

            IN - OUT =          -6.3077              IN - OUT =      -1.8899E-04

 PERCENT DISCREPANCY =          -0.00     PERCENT DISCREPANCY =          -0.00




         TIME SUMMARY AT END OF TIME STEP    4 IN STRESS PERIOD   25
                    SECONDS     MINUTES      HOURS       DAYS        YEARS
                    -----------------------------------------------------------
   TIME STEP LENGTH 2.80517E+05  4675.3      77.921      3.2467     8.88905E-03
 STRESS PERIOD TIME 8.71421E+05  14524.      242.06      10.086     2.76137E-02
         TOTAL TIME 6.13514E+07 1.02252E+06  17042.      710.09      1.9441    


end timestep


start timestep kper="25" kstp="5" mode="normal"

 UBDSV1 SAVING     FLOW-JA-FACE ON UNIT   1015 AT TIME STEP      5, STRESS PERIOD     25
 UBDSV06 SAVING              WEL IN MODEL MUMODEL          PACKAGE MUMODEL         CONNECTED TO MODEL MUMODEL          PACKAGE WEL-1            ON UNIT   1015 AT TIME STEP      5, STRESS PERIOD     25
 UBDSV06 SAVING             RCHA IN MODEL MUMODEL          PACKAGE MUMODEL         CONNECTED TO MODEL MUMODEL          PACKAGE RCH-1            ON UNIT   1015 AT TIME STEP      5, STRESS PERIOD     25

 WEL PACKAGE (WEL-1) FLOW RATES   PERIOD     25   STEP        5
 -----------------------------------------------
   NUMBER   CELLID                    RATE      
 -----------------------------------------------
     1      (1,5,5)              -20000.000     
     2      (1,11,5)              0.0000000     
     3      (1,5,5)               0.0000000     
 -----------------------------------------------




 CHD PACKAGE (CHD-FROM-IBOUND) FLOW RATES   PERIOD     25   STEP        5
 -----------------------------------------------
   NUMBER   CELLID                    RATE      
 -----------------------------------------------
     1      (1,1,1)              -2594.0553     
     2      (1,1,2)              -2593.5414     
     3      (1,1,3)              -2590.8338     
     4      (1,1,4)              -2581.1963     
     5      (1,1,5)              -2564.8323     
     6      (1,1,6)              -2581.1946     
     7      (1,1,7)              -2590.8306     
     8      (1,1,8)              -2593.5372     
     9      (1,1,9)              -2594.0506     
     10     (1,21,1)             -2594.1526     
     11     (1,21,2)             -2594.1535     
     12     (1,21,3)             -2594.1547     
     13     (1,21,4)             -2594.1559     
     14     (1,21,5)             -2594.1568     
     15     (1,21,6)             -2594.1574     
     16     (1,21,7)             -2594.1574     
     17     (1,21,8)             -2594.1565     
     18     (1,21,9)             -2594.1556     
 -----------------------------------------------




 HEAD WILL BE SAVED ON UNIT 1016 AT END OF TIME STEP    5, STRESS PERIOD   25


  VOLUME BUDGET FOR ENTIRE MODEL AT END OF TIME STEP    5, STRESS PERIOD  25
  ---------------------------------------------------------------------------------------------------

     CUMULATIVE VOLUME      L**3       RATES FOR THIS TIME STEP      L**3/T          PACKAGE NAME    
     ------------------                 ------------------------                     ----------------

           IN:                                      IN:
           ---                                      ---
              STO-SS =    18743071.8597                STO-SS =       22979.1668     STORAGE                          
              STO-SY =      709031.2712                STO-SY =         902.3056     STORAGE                          
                 WEL =           0.0000                   WEL =           0.0000     WEL-1                            
                RCHA =    67398878.9358                  RCHA =       42750.0000     RCH-1                            
                 CHD =           0.0000                   CHD =           0.0000     CHD-FROM-IBOUND                  

            TOTAL IN =    86850982.0668              TOTAL IN =       66631.4724

          OUT:                                     OUT:
          ----                                     ----
              STO-SS =    45065158.4270                STO-SS =           0.0000     STORAGE                          
              STO-SY =     1649632.5699                STO-SY =           0.0000     STORAGE                          
                 WEL =     6959639.2682                   WEL =       20000.0000     WEL-1                            
                RCHA =           0.0000                  RCHA =           0.0000     RCH-1                            
                 CHD =    33176558.1106                   CHD =       46631.4727     CHD-FROM-IBOUND                  

           TOTAL OUT =    86850988.3757             TOTAL OUT =       66631.4727

            IN - OUT =          -6.3089              IN - OUT =      -3.1370E-04

 PERCENT DISCREPANCY =          -0.00     PERCENT DISCREPANCY =          -0.00




         TIME SUMMARY AT END OF TIME STEP    5 IN STRESS PERIOD   25
                    SECONDS     MINUTES      HOURS       DAYS        YEARS
                    -----------------------------------------------------------
   TIME STEP LENGTH 3.36621E+05  5610.3      93.506      3.8961     1.06669E-02
 STRESS PERIOD TIME 1.20804E+06  20134.      335.57      13.982     3.82805E-02
         TOTAL TIME 6.16880E+07 1.02813E+06  17136.      713.98      1.9548    


end timestep


start timestep kper="25" kstp="6" mode="normal"

 UBDSV1 SAVING     FLOW-JA-FACE ON UNIT   1015 AT TIME STEP      6, STRESS PERIOD     25
 UBDSV06 SAVING              WEL IN MODEL MUMODEL          PACKAGE MUMODEL         CONNECTED TO MODEL MUMODEL          PACKAGE WEL-1            ON UNIT   1015 AT TIME STEP      6, STRESS PERIOD     25
 UBDSV06 SAVING             RCHA IN MODEL MUMODEL          PACKAGE MUMODEL         CONNECTED TO MODEL MUMODEL          PACKAGE RCH-1            ON UNIT   1015 AT TIME STEP      6, STRESS PERIOD     25

 WEL PACKAGE (WEL-1) FLOW RATES   PERIOD     25   STEP        6
 -----------------------------------------------
   NUMBER   CELLID                    RATE      
 -----------------------------------------------
     1      (1,5,5)              -20000.000     
     2      (1,11,5)              0.0000000     
     3      (1,5,5)               0.0000000     
 -----------------------------------------------




 CHD PACKAGE (CHD-FROM-IBOUND) FLOW RATES   PERIOD     25   STEP        6
 -----------------------------------------------
   NUMBER   CELLID                    RATE      
 -----------------------------------------------
     1      (1,1,1)              -2593.2372     
     2      (1,1,2)              -2592.6903     
     3      (1,1,3)              -2589.8415     
     4      (1,1,4)              -2579.8188     
     5      (1,1,5)              -2563.0111     
     6      (1,1,6)              -2579.8171     
     7      (1,1,7)              -2589.8383     
     8      (1,1,8)              -2592.6862     
     9      (1,1,9)              -2593.2325     
     10     (1,21,1)             -2593.3426     
     11     (1,21,2)             -2593.3435     
     12     (1,21,3)             -2593.3447     
     13     (1,21,4)             -2593.3458     
     14     (1,21,5)             -2593.3468     
     15     (1,21,6)             -2593.3474     
     16     (1,21,7)             -2593.3473     
     17     (1,21,8)             -2593.3465     
     18     (1,21,9)             -2593.3455     
 -----------------------------------------------




 HEAD WILL BE SAVED ON UNIT 1016 AT END OF TIME STEP    6, STRESS PERIOD   25


  VOLUME BUDGET FOR ENTIRE MODEL AT END OF TIME STEP    6, STRESS PERIOD  25
  ---------------------------------------------------------------------------------------------------

     CUMULATIVE VOLUME      L**3       RATES FOR THIS TIME STEP      L**3/T          PACKAGE NAME    
     ------------------                 ------------------------                     ----------------

           IN:                                      IN:
           ---                                      ---
              STO-SS =    18850429.2620                STO-SS =       22962.7514     STORAGE                          
              STO-SY =      713246.1890                STO-SY =         901.5318     STORAGE                          
                 WEL =           0.0000                   WEL =           0.0000     WEL-1                            
                RCHA =    67598747.3601                  RCHA =       42750.0000     RCH-1                            
                 CHD =           0.0000                   CHD =           0.0000     CHD-FROM-IBOUND                  

            TOTAL IN =    87162422.8110              TOTAL IN =       66614.2832

          OUT:                                     OUT:
          ----                                     ----
              STO-SS =    45065158.4270                STO-SS =           0.0000     STORAGE                          
              STO-SY =     1649632.5699                STO-SY =           0.0000     STORAGE                          
                 WEL =     7053144.9638                   WEL =       20000.0000     WEL-1                            
                RCHA =           0.0000                  RCHA =           0.0000     RCH-1                            
                 CHD =    33394493.1594                   CHD =       46614.2832     CHD-FROM-IBOUND                  

           TOTAL OUT =    87162429.1201             TOTAL OUT =       66614.2832

            IN - OUT =          -6.3091              IN - OUT =      -3.4615E-05

 PERCENT DISCREPANCY =          -0.00     PERCENT DISCREPANCY =          -0.00




         TIME SUMMARY AT END OF TIME STEP    6 IN STRESS PERIOD   25
                    SECONDS     MINUTES      HOURS       DAYS        YEARS
                    -----------------------------------------------------------
   TIME STEP LENGTH 4.03945E+05  6732.4      112.21      4.6753     1.28002E-02
 STRESS PERIOD TIME 1.61199E+06  26866.      447.77      18.657     5.10808E-02
         TOTAL TIME 6.20920E+07 1.03487E+06  17248.      718.66      1.9676    


end timestep


start timestep kper="25" kstp="7" mode="normal"

 UBDSV1 SAVING     FLOW-JA-FACE ON UNIT   1015 AT TIME STEP      7, STRESS PERIOD     25
 UBDSV06 SAVING              WEL IN MODEL MUMODEL          PACKAGE MUMODEL         CONNECTED TO MODEL MUMODEL          PACKAGE WEL-1            ON UNIT   1015 AT TIME STEP      7, STRESS PERIOD     25
 UBDSV06 SAVING             RCHA IN MODEL MUMODEL          PACKAGE MUMODEL         CONNECTED TO MODEL MUMODEL          PACKAGE RCH-1            ON UNIT   1015 AT TIME STEP      7, STRESS PERIOD     25

 WEL PACKAGE (WEL-1) FLOW RATES   PERIOD     25   STEP        7
 -----------------------------------------------
   NUMBER   CELLID                    RATE      
 -----------------------------------------------
     1      (1,5,5)              -20000.000     
     2      (1,11,5)              0.0000000     
     3      (1,5,5)               0.0000000     
 -----------------------------------------------




 CHD PACKAGE (CHD-FROM-IBOUND) FLOW RATES   PERIOD     25   STEP        7
 -----------------------------------------------
   NUMBER   CELLID                    RATE      
 -----------------------------------------------
     1      (1,1,1)              -2592.2662     
     2      (1,1,2)              -2591.6777     
     3      (1,1,3)              -2588.6527     
     4      (1,1,4)              -2578.1570     
     5      (1,1,5)              -2560.8137     
     6      (1,1,6)              -2578.1553     
     7      (1,1,7)              -2588.6496     
     8      (1,1,8)              -2591.6736     
     9      (1,1,9)              -2592.2617     
     10     (1,21,1)             -2592.3821     
     11     (1,21,2)             -2592.3830     
     12     (1,21,3)             -2592.3842     
     13     (1,21,4)             -2592.3853     
     14     (1,21,5)             -2592.3862     
     15     (1,21,6)             -2592.3869     
     16     (1,21,7)             -2592.3868     
     17     (1,21,8)             -2592.3860     
     18     (1,21,9)             -2592.3850     
 -----------------------------------------------




 HEAD WILL BE SAVED ON UNIT 1016 AT END OF TIME STEP    7, STRESS PERIOD   25


  VOLUME BUDGET FOR ENTIRE MODEL AT END OF TIME STEP    7, STRESS PERIOD  25
  ---------------------------------------------------------------------------------------------------

     CUMULATIVE VOLUME      L**3       RATES FOR THIS TIME STEP      L**3/T          PACKAGE NAME    
     ------------------                 ------------------------                     ----------------

           IN:                                      IN:
           ---                                      ---
              STO-SS =    18979148.2392                STO-SS =       22943.1616     STORAGE                          
              STO-SY =      718298.9267                STO-SY =         900.6114     STORAGE                          
                 WEL =           0.0000                   WEL =           0.0000     WEL-1                            
                RCHA =    67838589.4691                  RCHA =       42750.0000     RCH-1                            
                 CHD =           0.0000                   CHD =           0.0000     CHD-FROM-IBOUND                  

            TOTAL IN =    87536036.6350              TOTAL IN =       66593.7730

          OUT:                                     OUT:
          ----                                     ----
              STO-SS =    45065158.4270                STO-SS =           0.0000     STORAGE                          
              STO-SY =     1649632.5699                STO-SY =           0.0000     STORAGE                          
                 WEL =     7165351.7984                   WEL =       20000.0000     WEL-1                            
                RCHA =           0.0000                  RCHA =           0.0000     RCH-1                            
                 CHD =    33655900.1491                   CHD =       46593.7731     CHD-FROM-IBOUND                  

           TOTAL OUT =    87536042.9444             TOTAL OUT =       66593.7731

            IN - OUT =          -6.3094              IN - OUT =      -5.8288E-05

 PERCENT DISCREPANCY =          -0.00     PERCENT DISCREPANCY =          -0.00




         TIME SUMMARY AT END OF TIME STEP    7 IN STRESS PERIOD   25
                    SECONDS     MINUTES      HOURS       DAYS        YEARS
                    -----------------------------------------------------------
   TIME STEP LENGTH 4.84734E+05  8078.9      134.65      5.6103     1.53603E-02
 STRESS PERIOD TIME 2.09672E+06  34945.      582.42      24.268     6.64410E-02
         TOTAL TIME 6.25767E+07 1.04295E+06  17382.      724.27      1.9829    


end timestep


start timestep kper="25" kstp="8" mode="normal"

 UBDSV1 SAVING     FLOW-JA-FACE ON UNIT   1015 AT TIME STEP      8, STRESS PERIOD     25
 UBDSV06 SAVING              WEL IN MODEL MUMODEL          PACKAGE MUMODEL         CONNECTED TO MODEL MUMODEL          PACKAGE WEL-1            ON UNIT   1015 AT TIME STEP      8, STRESS PERIOD     25
 UBDSV06 SAVING             RCHA IN MODEL MUMODEL          PACKAGE MUMODEL         CONNECTED TO MODEL MUMODEL          PACKAGE RCH-1            ON UNIT   1015 AT TIME STEP      8, STRESS PERIOD     25

 WEL PACKAGE (WEL-1) FLOW RATES   PERIOD     25   STEP        8
 -----------------------------------------------
   NUMBER   CELLID                    RATE      
 -----------------------------------------------
     1      (1,5,5)              -20000.000     
     2      (1,11,5)              0.0000000     
     3      (1,5,5)               0.0000000     
 -----------------------------------------------




 CHD PACKAGE (CHD-FROM-IBOUND) FLOW RATES   PERIOD     25   STEP        8
 -----------------------------------------------
   NUMBER   CELLID                    RATE      
 -----------------------------------------------
     1      (1,1,1)              -2591.1163     
     2      (1,1,2)              -2590.4746     
     3      (1,1,3)              -2587.2286     
     4      (1,1,4)              -2576.1499     
     5      (1,1,5)              -2558.1596     
     6      (1,1,6)              -2576.1483     
     7      (1,1,7)              -2587.2255     
     8      (1,1,8)              -2590.4705     
     9      (1,1,9)              -2591.1117     
     10     (1,21,1)             -2591.2458     
     11     (1,21,2)             -2591.2466     
     12     (1,21,3)             -2591.2478     
     13     (1,21,4)             -2591.2489     
     14     (1,21,5)             -2591.2499     
     15     (1,21,6)             -2591.2504     
     16     (1,21,7)             -2591.2504     
     17     (1,21,8)             -2591.2496     
     18     (1,21,9)             -2591.2486     
 -----------------------------------------------




 HEAD WILL BE SAVED ON UNIT 1016 AT END OF TIME STEP    8, STRESS PERIOD   25


  VOLUME BUDGET FOR ENTIRE MODEL AT END OF TIME STEP    8, STRESS PERIOD  25
  ---------------------------------------------------------------------------------------------------

     CUMULATIVE VOLUME      L**3       RATES FOR THIS TIME STEP      L**3/T          PACKAGE NAME    
     ------------------                 ------------------------                     ----------------

           IN:                                      IN:
           ---                                      ---
              STO-SS =    19133453.7615                STO-SS =       22919.8044     STORAGE                          
              STO-SY =      724354.8531                STO-SY =         899.5183     STORAGE                          
                 WEL =           0.0000                   WEL =           0.0000     WEL-1                            
                RCHA =    68126400.0000                  RCHA =       42750.0000     RCH-1                            
                 CHD =           0.0000                   CHD =           0.0000     CHD-FROM-IBOUND                  

            TOTAL IN =    87984208.6146              TOTAL IN =       66569.3228

          OUT:                                     OUT:
          ----                                     ----
              STO-SS =    45065158.4270                STO-SS =           0.0000     STORAGE                          
              STO-SY =     1649632.5699                STO-SY =           0.0000     STORAGE                          
                 WEL =     7300000.0000                   WEL =       20000.0000     WEL-1                            
                RCHA =           0.0000                  RCHA =           0.0000     RCH-1                            
                 CHD =    33969423.9277                   CHD =       46569.3229     CHD-FROM-IBOUND                  

           TOTAL OUT =    87984214.9247             TOTAL OUT =       66569.3229

            IN - OUT =          -6.3100              IN - OUT =      -9.5233E-05

 PERCENT DISCREPANCY =          -0.00     PERCENT DISCREPANCY =          -0.00




         TIME SUMMARY AT END OF TIME STEP    8 IN STRESS PERIOD   25
                    SECONDS     MINUTES      HOURS       DAYS        YEARS
                    -----------------------------------------------------------
   TIME STEP LENGTH 5.81680E+05  9694.7      161.58      6.7324     1.84323E-02
 STRESS PERIOD TIME 2.67840E+06  44640.      744.00      31.000     8.48734E-02
         TOTAL TIME 6.31584E+07 1.05264E+06  17544.      731.00      2.0014    


end timestep

