                                   MODFLOW 6
                U.S. GEOLOGICAL SURVEY MODULAR HYDROLOGIC MODEL
                          GROUNDWATER FLOW MODEL (GWF)
                            VERSION 6.4.2 06/28/2023

   MODFLOW 6 compiled Jul 05 2023 20:31:54 with Intel(R) Fortran Intel(R) 64
   Compiler Classic for applications running on Intel(R) 64, Version 2021.7.0
                             Build 20220726_000000

This software has been approved for release by the U.S. Geological 
Survey (USGS). Although the software has been subjected to rigorous 
review, the USGS reserves the right to update the software as needed 
pursuant to further analysis and review. No warranty, expressed or 
implied, is made by the USGS or the U.S. Government as to the 
functionality of the software and related material nor shall the 
fact of release constitute any such warranty. Furthermore, the 
software is released on condition that neither the USGS nor the U.S. 
Government shall be held liable for any damages resulting from its 
authorized or unauthorized use. Also refer to the USGS Water 
Resources Software User Rights Notice for complete use, copyright, 
and distribution information.


As a work of the United States Government, this USGS product is 
in the public domain within the United States. You can copy, 
modify, distribute, and perform the work, even for commercial 
purposes, all without asking permission. Additionally, USGS 
waives copyright and related rights in the work worldwide 
through CC0 1.0 Universal Public Domain Dedication 
(https://creativecommons.org/publicdomain/zero/1.0/).

The following GNU Lesser General Public License (LGPL) libraries
are used in this USGS product:

    SPARSKIT version 2.0
      ilut, luson, and qsplit 
      (https://www-users.cse.umn.edu/~saad/software/SPARSKIT/)

    RCM - Reverse Cuthill McKee Ordering
      (https://people.math.sc.edu/Burkardt/f_src/rcm/rcm.html)

    BLAS - Basic Linear Algebra Subprograms Level 1
      (https://people.math.sc.edu/Burkardt/f_src/blas1_d/blas1_d.html)

    SPARSEKIT - Sparse Matrix Utility Package
      amux, dperm, dvperm, rperm, and cperm
      (https://people.sc.fsu.edu/~jburkardt/f77_src/sparsekit/sparsekit.html)

The following BSD-3 License libraries are used in this USGS product:

    Modern Fortran DAG Library
      Copyright (c) 2018, Jacob Williams
      All rights reserved.
      (https://github.com/jacobwilliams/daglib)

MODFLOW 6 compiler options: /O2 /heap-arrays:0 /fpe:0 /traceback /nologo /fpp
/c /module:win64\mod_mf6\ /object:win64\obj_mf6\

System command used to initiate simulation:
C:\A\envs\pyclass\Scripts\mf6.exe

MODFLOW was compiled using uniform precision.

Real Variables
  KIND: 8
  TINY (smallest non-zero value):    2.225074-308
  HUGE (largest value):    1.797693+308
  PRECISION: 15
  SIZE IN BITS: 64

Integer Variables
  KIND: 4
  HUGE (largest value): 2147483647
  SIZE IN BITS: 32

Long Integer Variables
  KIND: 8
  HUGE (largest value): 9223372036854775807
  SIZE IN BITS: 64

Logical Variables
  KIND: 4
  SIZE IN BITS: 32
 
 NAMEFILE OPTIONS:
 END NAMEFILE OPTIONS:

 DIS -- STRUCTURED GRID DISCRETIZATION PACKAGE, VERSION 2 : 3/27/2014 - INPUT READ FROM MEMPATH: __INPUT__/MUMODEL/DIS                             


 NPF -- NODE PROPERTY FLOW PACKAGE, VERSION 1, 3/30/2015 INPUT READ FROM MEMPATH: __INPUT__/MUMODEL/NPF                             

 Setting Discretization Options
    Model length unit [0=UND, 1=FEET, 2=METERS, 3=CENTIMETERS] set as 0
 End Setting Discretization Options

 Setting Discretization Dimensions
    NLAY = 1
    NROW = 21
    NCOL = 9
 End Setting Discretization Dimensions

 Setting Discretization Griddata
    DELR set from input file
    DELC set from input file
    TOP set from input file
    BOTM set from input file
 End Setting Discretization Griddata

 Setting NPF Options
    Cell-by-cell flow information will be saved to binary file whenever ICBCFL is not zero.
    Vertical flow will be adjusted for perched conditions.
    Vertical conductance varies with water table.
    Vertical conductance accounts for dewatered portion of an underlying cell.
 End Setting NPF Options

 Setting NPF Griddata
    ICELLTYPE set from input file
    K set from input file
    K33 not provided.  Setting K33 = K.
    K22 not provided.  Setting K22 = K.
 End Setting NPF Griddata


 WEL   -- WEL PACKAGE, VERSION 8, 2/22/2014 INPUT READ FROM UNIT 1008
 # WEL6 input file, prepared by MF5to6 on 1/30/2024 at 15:47:34.

 PROCESSING WEL OPTIONS
    AUXILIARY WEL VARIABLE: IFACE           
    LISTS OF WEL CELLS WILL BE PRINTED.
    WEL FLOWS WILL BE PRINTED TO LISTING FILE.
    FLOWS WILL BE SAVED TO BUDGET FILE SPECIFIED IN OUTPUT CONTROL
 END OF WEL OPTIONS

 PROCESSING WEL DIMENSIONS
    MAXBOUND =       3
 END OF WEL DIMENSIONS

 RCH   -- RCH PACKAGE, VERSION 8, 2/22/2014 INPUT READ FROM UNIT 1009
 # File generated by Flopy version 3.5.0 on 02/21/2024 at 16:43:13.

 PROCESSING RCH OPTIONS
    RECHARGE INPUT WILL BE READ AS ARRAY(S).
    FLOWS WILL BE SAVED TO BUDGET FILE SPECIFIED IN OUTPUT CONTROL
 END OF RCHA OPTIONS

 CHD   -- CHD PACKAGE, VERSION 8, 2/22/2014 INPUT READ FROM UNIT 1010
 # CHD6 input file, prepared by MF5to6 on 1/30/2024 at 15:47:34.

 PROCESSING CHD OPTIONS
    LISTS OF CHD CELLS WILL BE PRINTED.
    CHD FLOWS WILL BE PRINTED TO LISTING FILE.
 END OF CHD OPTIONS

 PROCESSING CHD DIMENSIONS
    MAXBOUND =      18
 END OF CHD DIMENSIONS

 IC -- INITIAL CONDITIONS PACKAGE, VERSION 8, 3/28/2015 INPUT READ FROM UNIT 1006
 # IC6 input file, prepared by MF5to6 on 1/30/2024 at 15:47:34.
 PROCESSING IC OPTIONS
 END OF IC OPTIONS
 PROCESSING GRIDDATA

     INITIAL HEAD FOR LAYER 1

               1          2          3          4          5          6          7          8          9
 .......................................................................................................
   1   1.000E+03  1.000E+03  1.000E+03  1.000E+03  1.000E+03  1.000E+03  1.000E+03  1.000E+03  1.000E+03
   2   1.100E+03  1.100E+03  1.100E+03  1.100E+03  1.100E+03  1.100E+03  1.100E+03  1.100E+03  1.100E+03
   3   1.100E+03  1.100E+03  1.100E+03  1.100E+03  1.100E+03  1.100E+03  1.100E+03  1.100E+03  1.100E+03
   4   1.100E+03  1.100E+03  1.100E+03  1.100E+03  1.100E+03  1.100E+03  1.100E+03  1.100E+03  1.100E+03
   5   1.100E+03  1.100E+03  1.100E+03  1.100E+03  1.100E+03  1.100E+03  1.100E+03  1.100E+03  1.100E+03
   6   1.100E+03  1.100E+03  1.100E+03  1.100E+03  1.100E+03  1.100E+03  1.100E+03  1.100E+03  1.100E+03
   7   1.100E+03  1.100E+03  1.100E+03  1.100E+03  1.100E+03  1.100E+03  1.100E+03  1.100E+03  1.100E+03
   8   1.100E+03  1.100E+03  1.100E+03  1.100E+03  1.100E+03  1.100E+03  1.100E+03  1.100E+03  1.100E+03
   9   1.100E+03  1.100E+03  1.100E+03  1.100E+03  1.100E+03  1.100E+03  1.100E+03  1.100E+03  1.100E+03
  10   1.100E+03  1.100E+03  1.100E+03  1.100E+03  1.100E+03  1.100E+03  1.100E+03  1.100E+03  1.100E+03
  11   1.100E+03  1.100E+03  1.100E+03  1.100E+03  1.100E+03  1.100E+03  1.100E+03  1.100E+03  1.100E+03
  12   1.100E+03  1.100E+03  1.100E+03  1.100E+03  1.100E+03  1.100E+03  1.100E+03  1.100E+03  1.100E+03
  13   1.100E+03  1.100E+03  1.100E+03  1.100E+03  1.100E+03  1.100E+03  1.100E+03  1.100E+03  1.100E+03
  14   1.100E+03  1.100E+03  1.100E+03  1.100E+03  1.100E+03  1.100E+03  1.100E+03  1.100E+03  1.100E+03
  15   1.100E+03  1.100E+03  1.100E+03  1.100E+03  1.100E+03  1.100E+03  1.100E+03  1.100E+03  1.100E+03
  16   1.100E+03  1.100E+03  1.100E+03  1.100E+03  1.100E+03  1.100E+03  1.100E+03  1.100E+03  1.100E+03
  17   1.100E+03  1.100E+03  1.100E+03  1.100E+03  1.100E+03  1.100E+03  1.100E+03  1.100E+03  1.100E+03
  18   1.100E+03  1.100E+03  1.100E+03  1.100E+03  1.100E+03  1.100E+03  1.100E+03  1.100E+03  1.100E+03
  19   1.100E+03  1.100E+03  1.100E+03  1.100E+03  1.100E+03  1.100E+03  1.100E+03  1.100E+03  1.100E+03
  20   1.100E+03  1.100E+03  1.100E+03  1.100E+03  1.100E+03  1.100E+03  1.100E+03  1.100E+03  1.100E+03
  21   1.000E+03  1.000E+03  1.000E+03  1.000E+03  1.000E+03  1.000E+03  1.000E+03  1.000E+03  1.000E+03
 END PROCESSING GRIDDATA

 STO -- STORAGE PACKAGE, VERSION 1, 5/19/2014 INPUT READ FROM UNIT 1005


 # STO6 input file, prepared by MF5to6 on 1/30/2024 at 15:47:34.
 PROCESSING STORAGE OPTIONS
 END OF STORAGE OPTIONS
 PROCESSING GRIDDATA

                 ICONVERT = 1 FOR LAYER 1

         SPECIFIC STORAGE =  0.1000000     FOR LAYER 1

           SPECIFIC YIELD =  0.1000000     FOR LAYER 1
 END PROCESSING GRIDDATA
    BINARY GRID INFORMATION WILL BE WRITTEN TO:
      UNIT NUMBER: 1014
      FILE NAME: mumodel.dis.grb

 OPENED mumodel.dis.grb
 FILE TYPE:DATA(BINARY)   UNIT 1014   STATUS:REPLACE             
 FORMAT:UNFORMATTED            ACCESS:STREAM              
 ACTION:READWRITE           

      THE LAST TIME STEP WILL BE PRINTED
      THE LAST TIME STEP WILL BE PRINTED
 # OC6 input file, prepared by MF5to6 on 1/30/2024 at 15:47:34.

 PROCESSING OC OPTIONS

    BUDGET INFORMATION WILL BE WRITTEN TO:
      UNIT NUMBER: 1015
      FILE NAME: mumodel_7-2b.cbb

 OPENED mumodel_7-2b.cbb
 FILE TYPE:DATA(BINARY)   UNIT 1015   STATUS:REPLACE             
 FORMAT:UNFORMATTED            ACCESS:STREAM              
 ACTION:READWRITE           

    HEAD INFORMATION WILL BE WRITTEN TO:
      UNIT NUMBER: 1016
      FILE NAME: mumodel_7-2b.hds

 OPENED mumodel_7-2b.hds
 FILE TYPE:DATA(BINARY)   UNIT 1016   STATUS:REPLACE             
 FORMAT:UNFORMATTED            ACCESS:STREAM              
 ACTION:READWRITE           

 END OF OC OPTIONS

start timestep kper="1" kstp="1" mode="normal"


 BEGIN READING OUTPUT CONTROL FOR STRESS PERIOD 1
      ALL TIME STEPS WILL BE SAVED
      ALL TIME STEPS WILL BE PRINTED
      ALL TIME STEPS WILL BE SAVED

 END READING OUTPUT CONTROL FOR STRESS PERIOD 1


 PROCESSING STORAGE PERIOD DATA
 END PROCESSING STORAGE PERIOD DATA


 STRESS PERIOD 1 IS STEADY-STATE

 --------------------------------------------------------------------
  WEL NO.    LAYER    ROW     COL     STRESS RATE         IFACE      
 --------------------------------------------------------------------
     1         1       5       5     0.00000000       0.00000000     
     2         1      11       5     0.00000000       0.00000000     
     3         1       5       5     0.00000000       0.00000000     
 --------------------------------------------------------------------


 ---------------------------------------------------
  CHD NO.    LAYER    ROW     COL         HEAD      
 ---------------------------------------------------
     1         1       1       1     1000.00000     
     2         1       1       2     1000.00000     
     3         1       1       3     1000.00000     
     4         1       1       4     1000.00000     
     5         1       1       5     1000.00000     
     6         1       1       6     1000.00000     
     7         1       1       7     1000.00000     
     8         1       1       8     1000.00000     
     9         1       1       9     1000.00000     
     10        1      21       1     1000.00000     
     11        1      21       2     1000.00000     
     12        1      21       3     1000.00000     
     13        1      21       4     1000.00000     
     14        1      21       5     1000.00000     
     15        1      21       6     1000.00000     
     16        1      21       7     1000.00000     
     17        1      21       8     1000.00000     
     18        1      21       9     1000.00000     
 ---------------------------------------------------


 UBDSV1 SAVING     FLOW-JA-FACE ON UNIT   1015 AT TIME STEP      1, STRESS PERIOD      1
 UBDSV06 SAVING              WEL IN MODEL MUMODEL          PACKAGE MUMODEL         CONNECTED TO MODEL MUMODEL          PACKAGE WEL-1            ON UNIT   1015 AT TIME STEP      1, STRESS PERIOD      1
 UBDSV06 SAVING             RCHA IN MODEL MUMODEL          PACKAGE MUMODEL         CONNECTED TO MODEL MUMODEL          PACKAGE RCH-1            ON UNIT   1015 AT TIME STEP      1, STRESS PERIOD      1

 WEL PACKAGE (WEL-1) FLOW RATES   PERIOD      1   STEP        1
 -----------------------------------------------
   NUMBER   CELLID                    RATE      
 -----------------------------------------------
     1      (1,5,5)               0.0000000     
     2      (1,11,5)              0.0000000     
     3      (1,5,5)               0.0000000     
 -----------------------------------------------




 CHD PACKAGE (CHD-FROM-IBOUND) FLOW RATES   PERIOD      1   STEP        1
 -----------------------------------------------
   NUMBER   CELLID                    RATE      
 -----------------------------------------------
     1      (1,1,1)              -4749.9996     
     2      (1,1,2)              -4749.9935     
     3      (1,1,3)              -4749.9952     
     4      (1,1,4)              -4749.9979     
     5      (1,1,5)              -4750.0001     
     6      (1,1,6)              -4750.0019     
     7      (1,1,7)              -4750.0041     
     8      (1,1,8)              -4750.0071     
     9      (1,1,9)              -4750.0103     
     10     (1,21,1)             -4750.0120     
     11     (1,21,2)             -4750.0061     
     12     (1,21,3)             -4750.0017     
     13     (1,21,4)             -4749.9992     
     14     (1,21,5)             -4749.9970     
     15     (1,21,6)             -4749.9940     
     16     (1,21,7)             -4749.9904     
     17     (1,21,8)             -4749.9895     
     18     (1,21,9)             -4750.0015     
 -----------------------------------------------




 HEAD WILL BE SAVED ON UNIT 1016 AT END OF TIME STEP    1, STRESS PERIOD    1


  VOLUME BUDGET FOR ENTIRE MODEL AT END OF TIME STEP    1, STRESS PERIOD   1
  ---------------------------------------------------------------------------------------------------

     CUMULATIVE VOLUME      L**3       RATES FOR THIS TIME STEP      L**3/T          PACKAGE NAME    
     ------------------                 ------------------------                     ----------------

           IN:                                      IN:
           ---                                      ---
              STO-SS =           0.0000                STO-SS =           0.0000     STORAGE                          
              STO-SY =           0.0000                STO-SY =           0.0000     STORAGE                          
                 WEL =           0.0000                   WEL =           0.0000     WEL-1                            
                RCHA =       85500.0000                  RCHA =       85500.0000     RCH-1                            
                 CHD =           0.0000                   CHD =           0.0000     CHD-FROM-IBOUND                  

            TOTAL IN =       85500.0000              TOTAL IN =       85500.0000

          OUT:                                     OUT:
          ----                                     ----
              STO-SS =           0.0000                STO-SS =           0.0000     STORAGE                          
              STO-SY =           0.0000                STO-SY =           0.0000     STORAGE                          
                 WEL =           0.0000                   WEL =           0.0000     WEL-1                            
                RCHA =           0.0000                  RCHA =           0.0000     RCH-1                            
                 CHD =       85500.0011                   CHD =       85500.0011     CHD-FROM-IBOUND                  

           TOTAL OUT =       85500.0011             TOTAL OUT =       85500.0011

            IN - OUT =      -1.1274E-03              IN - OUT =      -1.1274E-03

 PERCENT DISCREPANCY =          -0.00     PERCENT DISCREPANCY =          -0.00




         TIME SUMMARY AT END OF TIME STEP    1 IN STRESS PERIOD    1
                    SECONDS     MINUTES      HOURS       DAYS        YEARS
                    -----------------------------------------------------------
   TIME STEP LENGTH  86400.      1440.0      24.000      1.0000     2.73785E-03
 STRESS PERIOD TIME  86400.      1440.0      24.000      1.0000     2.73785E-03
         TOTAL TIME  86400.      1440.0      24.000      1.0000     2.73785E-03


end timestep


start timestep kper="2" kstp="1" mode="normal"


 END OF FILE DETECTED IN OUTPUT CONTROL.
 CURRENT OUTPUT CONTROL SETTINGS WILL BE 
 REPEATED UNTIL THE END OF THE SIMULATION.

 OUTPUT CONTROL FOR STRESS PERIOD 2 IS REPEATED USING SETTINGS FROM A PREVIOUS STRESS PERIOD.


 PROCESSING STORAGE PERIOD DATA
 END PROCESSING STORAGE PERIOD DATA


 STRESS PERIOD 2 IS TRANSIENT


 REUSING WELS FROM LAST STRESS PERIOD

 REUSING CHDS FROM LAST STRESS PERIOD
 UBDSV1 SAVING     FLOW-JA-FACE ON UNIT   1015 AT TIME STEP      1, STRESS PERIOD      2
 UBDSV06 SAVING              WEL IN MODEL MUMODEL          PACKAGE MUMODEL         CONNECTED TO MODEL MUMODEL          PACKAGE WEL-1            ON UNIT   1015 AT TIME STEP      1, STRESS PERIOD      2
 UBDSV06 SAVING             RCHA IN MODEL MUMODEL          PACKAGE MUMODEL         CONNECTED TO MODEL MUMODEL          PACKAGE RCH-1            ON UNIT   1015 AT TIME STEP      1, STRESS PERIOD      2

 WEL PACKAGE (WEL-1) FLOW RATES   PERIOD      2   STEP        1
 -----------------------------------------------
   NUMBER   CELLID                    RATE      
 -----------------------------------------------
     1      (1,5,5)               0.0000000     
     2      (1,11,5)              0.0000000     
     3      (1,5,5)               0.0000000     
 -----------------------------------------------




 CHD PACKAGE (CHD-FROM-IBOUND) FLOW RATES   PERIOD      2   STEP        1
 -----------------------------------------------
   NUMBER   CELLID                    RATE      
 -----------------------------------------------
     1      (1,1,1)              -4751.7533     
     2      (1,1,2)              -4751.7470     
     3      (1,1,3)              -4751.7485     
     4      (1,1,4)              -4751.7511     
     5      (1,1,5)              -4751.7532     
     6      (1,1,6)              -4751.7550     
     7      (1,1,7)              -4751.7571     
     8      (1,1,8)              -4751.7600     
     9      (1,1,9)              -4751.7631     
     10     (1,21,1)             -4751.7647     
     11     (1,21,2)             -4751.7590     
     12     (1,21,3)             -4751.7548     
     13     (1,21,4)             -4751.7523     
     14     (1,21,5)             -4751.7500     
     15     (1,21,6)             -4751.7469     
     16     (1,21,7)             -4751.7434     
     17     (1,21,8)             -4751.7427     
     18     (1,21,9)             -4751.7547     
 -----------------------------------------------




 HEAD WILL BE SAVED ON UNIT 1016 AT END OF TIME STEP    1, STRESS PERIOD    2


  VOLUME BUDGET FOR ENTIRE MODEL AT END OF TIME STEP    1, STRESS PERIOD   2
  ---------------------------------------------------------------------------------------------------

     CUMULATIVE VOLUME      L**3       RATES FOR THIS TIME STEP      L**3/T          PACKAGE NAME    
     ------------------                 ------------------------                     ----------------

           IN:                                      IN:
           ---                                      ---
              STO-SS =           0.0000                STO-SS =           0.0000     STORAGE                          
              STO-SY =           0.0000                STO-SY =           0.0000     STORAGE                          
                 WEL =           0.0000                   WEL =           0.0000     WEL-1                            
                RCHA =      406790.5482                  RCHA =      171000.0000     RCH-1                            
                 CHD =           0.0000                   CHD =           0.0000     CHD-FROM-IBOUND                  

            TOTAL IN =      406790.5482              TOTAL IN =      171000.0000

          OUT:                                     OUT:
          ----                                     ----
              STO-SS =      155768.8214                STO-SS =       82904.6127     STORAGE                          
              STO-SY =        4817.1610                STO-SY =        2563.8306     STORAGE                          
                 WEL =           0.0000                   WEL =           0.0000     WEL-1                            
                RCHA =           0.0000                  RCHA =           0.0000     RCH-1                            
                 CHD =      246204.5671                   CHD =       85531.5568     CHD-FROM-IBOUND                  

           TOTAL OUT =      406790.5494             TOTAL OUT =      171000.0001

            IN - OUT =      -1.2399E-03              IN - OUT =      -5.9834E-05

 PERCENT DISCREPANCY =          -0.00     PERCENT DISCREPANCY =          -0.00




         TIME SUMMARY AT END OF TIME STEP    1 IN STRESS PERIOD    2
                    SECONDS     MINUTES      HOURS       DAYS        YEARS
                    -----------------------------------------------------------
   TIME STEP LENGTH 1.62336E+05  2705.6      45.093      1.8789     5.14413E-03
 STRESS PERIOD TIME 1.62336E+05  2705.6      45.093      1.8789     5.14413E-03
         TOTAL TIME 2.48736E+05  4145.6      69.093      2.8789     7.88198E-03


end timestep


start timestep kper="2" kstp="2" mode="normal"

 UBDSV1 SAVING     FLOW-JA-FACE ON UNIT   1015 AT TIME STEP      2, STRESS PERIOD      2
 UBDSV06 SAVING              WEL IN MODEL MUMODEL          PACKAGE MUMODEL         CONNECTED TO MODEL MUMODEL          PACKAGE WEL-1            ON UNIT   1015 AT TIME STEP      2, STRESS PERIOD      2
 UBDSV06 SAVING             RCHA IN MODEL MUMODEL          PACKAGE MUMODEL         CONNECTED TO MODEL MUMODEL          PACKAGE RCH-1            ON UNIT   1015 AT TIME STEP      2, STRESS PERIOD      2

 WEL PACKAGE (WEL-1) FLOW RATES   PERIOD      2   STEP        2
 -----------------------------------------------
   NUMBER   CELLID                    RATE      
 -----------------------------------------------
     1      (1,5,5)               0.0000000     
     2      (1,11,5)              0.0000000     
     3      (1,5,5)               0.0000000     
 -----------------------------------------------




 CHD PACKAGE (CHD-FROM-IBOUND) FLOW RATES   PERIOD      2   STEP        2
 -----------------------------------------------
   NUMBER   CELLID                    RATE      
 -----------------------------------------------
     1      (1,1,1)              -4753.8483     
     2      (1,1,2)              -4753.8421     
     3      (1,1,3)              -4753.8435     
     4      (1,1,4)              -4753.8461     
     5      (1,1,5)              -4753.8482     
     6      (1,1,6)              -4753.8499     
     7      (1,1,7)              -4753.8520     
     8      (1,1,8)              -4753.8550     
     9      (1,1,9)              -4753.8581     
     10     (1,21,1)             -4753.8596     
     11     (1,21,2)             -4753.8540     
     12     (1,21,3)             -4753.8498     
     13     (1,21,4)             -4753.8473     
     14     (1,21,5)             -4753.8450     
     15     (1,21,6)             -4753.8419     
     16     (1,21,7)             -4753.8384     
     17     (1,21,8)             -4753.8378     
     18     (1,21,9)             -4753.8497     
 -----------------------------------------------




 HEAD WILL BE SAVED ON UNIT 1016 AT END OF TIME STEP    2, STRESS PERIOD    2


  VOLUME BUDGET FOR ENTIRE MODEL AT END OF TIME STEP    2, STRESS PERIOD   2
  ---------------------------------------------------------------------------------------------------

     CUMULATIVE VOLUME      L**3       RATES FOR THIS TIME STEP      L**3/T          PACKAGE NAME    
     ------------------                 ------------------------                     ----------------

           IN:                                      IN:
           ---                                      ---
              STO-SS =           0.0000                STO-SS =           0.0000     STORAGE                          
              STO-SY =           0.0000                STO-SY =           0.0000     STORAGE                          
                 WEL =           0.0000                   WEL =           0.0000     WEL-1                            
                RCHA =      792339.2060                  RCHA =      171000.0000     RCH-1                            
                 CHD =           0.0000                   CHD =           0.0000     CHD-FROM-IBOUND                  

            TOTAL IN =      792339.2060              TOTAL IN =      171000.0000

          OUT:                                     OUT:
          ----                                     ----
              STO-SS =      342609.9617                STO-SS =       82868.4897     STORAGE                          
              STO-SY =       10594.1765                STO-SY =        2562.2438     STORAGE                          
                 WEL =           0.0000                   WEL =           0.0000     WEL-1                            
                RCHA =           0.0000                  RCHA =           0.0000     RCH-1                            
                 CHD =      439135.0693                   CHD =       85569.2666     CHD-FROM-IBOUND                  

           TOTAL OUT =      792339.2075             TOTAL OUT =      171000.0001

            IN - OUT =      -1.4881E-03              IN - OUT =      -1.1010E-04

 PERCENT DISCREPANCY =          -0.00     PERCENT DISCREPANCY =          -0.00




         TIME SUMMARY AT END OF TIME STEP    2 IN STRESS PERIOD    2
                    SECONDS     MINUTES      HOURS       DAYS        YEARS
                    -----------------------------------------------------------
   TIME STEP LENGTH 1.94804E+05  3246.7      54.112      2.2547     6.17295E-03
 STRESS PERIOD TIME 3.57140E+05  5952.3      99.206      4.1336     1.13171E-02
         TOTAL TIME 4.43540E+05  7392.3      123.21      5.1336     1.40549E-02


end timestep


start timestep kper="2" kstp="3" mode="normal"

 UBDSV1 SAVING     FLOW-JA-FACE ON UNIT   1015 AT TIME STEP      3, STRESS PERIOD      2
 UBDSV06 SAVING              WEL IN MODEL MUMODEL          PACKAGE MUMODEL         CONNECTED TO MODEL MUMODEL          PACKAGE WEL-1            ON UNIT   1015 AT TIME STEP      3, STRESS PERIOD      2
 UBDSV06 SAVING             RCHA IN MODEL MUMODEL          PACKAGE MUMODEL         CONNECTED TO MODEL MUMODEL          PACKAGE RCH-1            ON UNIT   1015 AT TIME STEP      3, STRESS PERIOD      2

 WEL PACKAGE (WEL-1) FLOW RATES   PERIOD      2   STEP        3
 -----------------------------------------------
   NUMBER   CELLID                    RATE      
 -----------------------------------------------
     1      (1,5,5)               0.0000000     
     2      (1,11,5)              0.0000000     
     3      (1,5,5)               0.0000000     
 -----------------------------------------------




 CHD PACKAGE (CHD-FROM-IBOUND) FLOW RATES   PERIOD      2   STEP        3
 -----------------------------------------------
   NUMBER   CELLID                    RATE      
 -----------------------------------------------
     1      (1,1,1)              -4756.3498     
     2      (1,1,2)              -4756.3437     
     3      (1,1,3)              -4756.3451     
     4      (1,1,4)              -4756.3476     
     5      (1,1,5)              -4756.3497     
     6      (1,1,6)              -4756.3514     
     7      (1,1,7)              -4756.3535     
     8      (1,1,8)              -4756.3564     
     9      (1,1,9)              -4756.3595     
     10     (1,21,1)             -4756.3610     
     11     (1,21,2)             -4756.3554     
     12     (1,21,3)             -4756.3513     
     13     (1,21,4)             -4756.3488     
     14     (1,21,5)             -4756.3465     
     15     (1,21,6)             -4756.3434     
     16     (1,21,7)             -4756.3400     
     17     (1,21,8)             -4756.3394     
     18     (1,21,9)             -4756.3512     
 -----------------------------------------------




 HEAD WILL BE SAVED ON UNIT 1016 AT END OF TIME STEP    3, STRESS PERIOD    2


  VOLUME BUDGET FOR ENTIRE MODEL AT END OF TIME STEP    3, STRESS PERIOD   2
  ---------------------------------------------------------------------------------------------------

     CUMULATIVE VOLUME      L**3       RATES FOR THIS TIME STEP      L**3/T          PACKAGE NAME    
     ------------------                 ------------------------                     ----------------

           IN:                                      IN:
           ---                                      ---
              STO-SS =           0.0000                STO-SS =           0.0000     STORAGE                          
              STO-SY =           0.0000                STO-SY =           0.0000     STORAGE                          
                 WEL =           0.0000                   WEL =           0.0000     WEL-1                            
                RCHA =     1254997.5954                  RCHA =      171000.0000     RCH-1                            
                 CHD =           0.0000                   CHD =           0.0000     CHD-FROM-IBOUND                  

            TOTAL IN =     1254997.5954              TOTAL IN =      171000.0000

          OUT:                                     OUT:
          ----                                     ----
              STO-SS =      566702.6282                STO-SS =       82825.3564     STORAGE                          
              STO-SY =       17521.4713                STO-SY =        2560.3500     STORAGE                          
                 WEL =           0.0000                   WEL =           0.0000     WEL-1                            
                RCHA =           0.0000                  RCHA =           0.0000     RCH-1                            
                 CHD =      670773.4980                   CHD =       85614.2938     CHD-FROM-IBOUND                  

           TOTAL OUT =     1254997.5974             TOTAL OUT =      171000.0002

            IN - OUT =      -1.9941E-03              IN - OUT =      -1.8702E-04

 PERCENT DISCREPANCY =          -0.00     PERCENT DISCREPANCY =          -0.00




         TIME SUMMARY AT END OF TIME STEP    3 IN STRESS PERIOD    2
                    SECONDS     MINUTES      HOURS       DAYS        YEARS
                    -----------------------------------------------------------
   TIME STEP LENGTH 2.33764E+05  3896.1      64.935      2.7056     7.40754E-03
 STRESS PERIOD TIME 5.90904E+05  9848.4      164.14      6.8392     1.87246E-02
         TOTAL TIME 6.77304E+05  11288.      188.14      7.8392     2.14625E-02


end timestep


start timestep kper="2" kstp="4" mode="normal"

 UBDSV1 SAVING     FLOW-JA-FACE ON UNIT   1015 AT TIME STEP      4, STRESS PERIOD      2
 UBDSV06 SAVING              WEL IN MODEL MUMODEL          PACKAGE MUMODEL         CONNECTED TO MODEL MUMODEL          PACKAGE WEL-1            ON UNIT   1015 AT TIME STEP      4, STRESS PERIOD      2
 UBDSV06 SAVING             RCHA IN MODEL MUMODEL          PACKAGE MUMODEL         CONNECTED TO MODEL MUMODEL          PACKAGE RCH-1            ON UNIT   1015 AT TIME STEP      4, STRESS PERIOD      2

 WEL PACKAGE (WEL-1) FLOW RATES   PERIOD      2   STEP        4
 -----------------------------------------------
   NUMBER   CELLID                    RATE      
 -----------------------------------------------
     1      (1,5,5)               0.0000000     
     2      (1,11,5)              0.0000000     
     3      (1,5,5)               0.0000000     
 -----------------------------------------------




 CHD PACKAGE (CHD-FROM-IBOUND) FLOW RATES   PERIOD      2   STEP        4
 -----------------------------------------------
   NUMBER   CELLID                    RATE      
 -----------------------------------------------
     1      (1,1,1)              -4759.3338     
     2      (1,1,2)              -4759.3278     
     3      (1,1,3)              -4759.3292     
     4      (1,1,4)              -4759.3317     
     5      (1,1,5)              -4759.3338     
     6      (1,1,6)              -4759.3355     
     7      (1,1,7)              -4759.3376     
     8      (1,1,8)              -4759.3405     
     9      (1,1,9)              -4759.3436     
     10     (1,21,1)             -4759.3450     
     11     (1,21,2)             -4759.3394     
     12     (1,21,3)             -4759.3353     
     13     (1,21,4)             -4759.3329     
     14     (1,21,5)             -4759.3306     
     15     (1,21,6)             -4759.3275     
     16     (1,21,7)             -4759.3242     
     17     (1,21,8)             -4759.3237     
     18     (1,21,9)             -4759.3352     
 -----------------------------------------------




 HEAD WILL BE SAVED ON UNIT 1016 AT END OF TIME STEP    4, STRESS PERIOD    2


  VOLUME BUDGET FOR ENTIRE MODEL AT END OF TIME STEP    4, STRESS PERIOD   2
  ---------------------------------------------------------------------------------------------------

     CUMULATIVE VOLUME      L**3       RATES FOR THIS TIME STEP      L**3/T          PACKAGE NAME    
     ------------------                 ------------------------                     ----------------

           IN:                                      IN:
           ---                                      ---
              STO-SS =           0.0000                STO-SS =           0.0000     STORAGE                          
              STO-SY =           0.0000                STO-SY =           0.0000     STORAGE                          
                 WEL =           0.0000                   WEL =           0.0000     WEL-1                            
                RCHA =     1810187.6627                  RCHA =      171000.0000     RCH-1                            
                 CHD =           0.0000                   CHD =           0.0000     CHD-FROM-IBOUND                  

            TOTAL IN =     1810187.6627              TOTAL IN =      171000.0000

          OUT:                                     OUT:
          ----                                     ----
              STO-SS =      835446.7668                STO-SS =       82773.9011     STORAGE                          
              STO-SY =       25826.8939                STO-SY =        2558.0920     STORAGE                          
                 WEL =           0.0000                   WEL =           0.0000     WEL-1                            
                RCHA =           0.0000                  RCHA =           0.0000     RCH-1                            
                 CHD =      948914.0050                   CHD =       85668.0073     CHD-FROM-IBOUND                  

           TOTAL OUT =     1810187.6657             TOTAL OUT =      171000.0003

            IN - OUT =      -3.0102E-03              IN - OUT =      -3.1297E-04

 PERCENT DISCREPANCY =          -0.00     PERCENT DISCREPANCY =          -0.00




         TIME SUMMARY AT END OF TIME STEP    4 IN STRESS PERIOD    2
                    SECONDS     MINUTES      HOURS       DAYS        YEARS
                    -----------------------------------------------------------
   TIME STEP LENGTH 2.80517E+05  4675.3      77.921      3.2467     8.88905E-03
 STRESS PERIOD TIME 8.71421E+05  14524.      242.06      10.086     2.76137E-02
         TOTAL TIME 9.57821E+05  15964.      266.06      11.086     3.03515E-02


end timestep


start timestep kper="2" kstp="5" mode="normal"

 UBDSV1 SAVING     FLOW-JA-FACE ON UNIT   1015 AT TIME STEP      5, STRESS PERIOD      2
 UBDSV06 SAVING              WEL IN MODEL MUMODEL          PACKAGE MUMODEL         CONNECTED TO MODEL MUMODEL          PACKAGE WEL-1            ON UNIT   1015 AT TIME STEP      5, STRESS PERIOD      2
 UBDSV06 SAVING             RCHA IN MODEL MUMODEL          PACKAGE MUMODEL         CONNECTED TO MODEL MUMODEL          PACKAGE RCH-1            ON UNIT   1015 AT TIME STEP      5, STRESS PERIOD      2

 WEL PACKAGE (WEL-1) FLOW RATES   PERIOD      2   STEP        5
 -----------------------------------------------
   NUMBER   CELLID                    RATE      
 -----------------------------------------------
     1      (1,5,5)               0.0000000     
     2      (1,11,5)              0.0000000     
     3      (1,5,5)               0.0000000     
 -----------------------------------------------




 CHD PACKAGE (CHD-FROM-IBOUND) FLOW RATES   PERIOD      2   STEP        5
 -----------------------------------------------
   NUMBER   CELLID                    RATE      
 -----------------------------------------------
     1      (1,1,1)              -4762.8896     
     2      (1,1,2)              -4762.8836     
     3      (1,1,3)              -4762.8849     
     4      (1,1,4)              -4762.8874     
     5      (1,1,5)              -4762.8895     
     6      (1,1,6)              -4762.8912     
     7      (1,1,7)              -4762.8933     
     8      (1,1,8)              -4762.8962     
     9      (1,1,9)              -4762.8992     
     10     (1,21,1)             -4762.9006     
     11     (1,21,2)             -4762.8951     
     12     (1,21,3)             -4762.8910     
     13     (1,21,4)             -4762.8886     
     14     (1,21,5)             -4762.8863     
     15     (1,21,6)             -4762.8833     
     16     (1,21,7)             -4762.8800     
     17     (1,21,8)             -4762.8796     
     18     (1,21,9)             -4762.8910     
 -----------------------------------------------




 HEAD WILL BE SAVED ON UNIT 1016 AT END OF TIME STEP    5, STRESS PERIOD    2


  VOLUME BUDGET FOR ENTIRE MODEL AT END OF TIME STEP    5, STRESS PERIOD   2
  ---------------------------------------------------------------------------------------------------

     CUMULATIVE VOLUME      L**3       RATES FOR THIS TIME STEP      L**3/T          PACKAGE NAME    
     ------------------                 ------------------------                     ----------------

           IN:                                      IN:
           ---                                      ---
              STO-SS =           0.0000                STO-SS =           0.0000     STORAGE                          
              STO-SY =           0.0000                STO-SY =           0.0000     STORAGE                          
                 WEL =           0.0000                   WEL =           0.0000     WEL-1                            
                RCHA =     2476415.7434                  RCHA =      171000.0000     RCH-1                            
                 CHD =           0.0000                   CHD =           0.0000     CHD-FROM-IBOUND                  

            TOTAL IN =     2476415.7434              TOTAL IN =      171000.0000

          OUT:                                     OUT:
          ----                                     ----
              STO-SS =     1157700.8503                STO-SS =       82712.5873     STORAGE                          
              STO-SY =       35782.9251                STO-SY =        2555.4032     STORAGE                          
                 WEL =           0.0000                   WEL =           0.0000     WEL-1                            
                RCHA =           0.0000                  RCHA =           0.0000     RCH-1                            
                 CHD =     1282931.9731                   CHD =       85732.0101     CHD-FROM-IBOUND                  

           TOTAL OUT =     2476415.7485             TOTAL OUT =      171000.0005

            IN - OUT =      -5.0855E-03              IN - OUT =      -5.3266E-04

 PERCENT DISCREPANCY =          -0.00     PERCENT DISCREPANCY =          -0.00




         TIME SUMMARY AT END OF TIME STEP    5 IN STRESS PERIOD    2
                    SECONDS     MINUTES      HOURS       DAYS        YEARS
                    -----------------------------------------------------------
   TIME STEP LENGTH 3.36621E+05  5610.3      93.506      3.8961     1.06669E-02
 STRESS PERIOD TIME 1.20804E+06  20134.      335.57      13.982     3.82805E-02
         TOTAL TIME 1.29444E+06  21574.      359.57      14.982     4.10184E-02


end timestep


start timestep kper="2" kstp="6" mode="normal"

 UBDSV1 SAVING     FLOW-JA-FACE ON UNIT   1015 AT TIME STEP      6, STRESS PERIOD      2
 UBDSV06 SAVING              WEL IN MODEL MUMODEL          PACKAGE MUMODEL         CONNECTED TO MODEL MUMODEL          PACKAGE WEL-1            ON UNIT   1015 AT TIME STEP      6, STRESS PERIOD      2
 UBDSV06 SAVING             RCHA IN MODEL MUMODEL          PACKAGE MUMODEL         CONNECTED TO MODEL MUMODEL          PACKAGE RCH-1            ON UNIT   1015 AT TIME STEP      6, STRESS PERIOD      2

 WEL PACKAGE (WEL-1) FLOW RATES   PERIOD      2   STEP        6
 -----------------------------------------------
   NUMBER   CELLID                    RATE      
 -----------------------------------------------
     1      (1,5,5)               0.0000000     
     2      (1,11,5)              0.0000000     
     3      (1,5,5)               0.0000000     
 -----------------------------------------------




 CHD PACKAGE (CHD-FROM-IBOUND) FLOW RATES   PERIOD      2   STEP        6
 -----------------------------------------------
   NUMBER   CELLID                    RATE      
 -----------------------------------------------
     1      (1,1,1)              -4767.1208     
     2      (1,1,2)              -4767.1150     
     3      (1,1,3)              -4767.1162     
     4      (1,1,4)              -4767.1186     
     5      (1,1,5)              -4767.1207     
     6      (1,1,6)              -4767.1224     
     7      (1,1,7)              -4767.1244     
     8      (1,1,8)              -4767.1273     
     9      (1,1,9)              -4767.1304     
     10     (1,21,1)             -4767.1316     
     11     (1,21,2)             -4767.1262     
     12     (1,21,3)             -4767.1222     
     13     (1,21,4)             -4767.1198     
     14     (1,21,5)             -4767.1175     
     15     (1,21,6)             -4767.1145     
     16     (1,21,7)             -4767.1113     
     17     (1,21,8)             -4767.1110     
     18     (1,21,9)             -4767.1222     
 -----------------------------------------------




 HEAD WILL BE SAVED ON UNIT 1016 AT END OF TIME STEP    6, STRESS PERIOD    2


  VOLUME BUDGET FOR ENTIRE MODEL AT END OF TIME STEP    6, STRESS PERIOD   2
  ---------------------------------------------------------------------------------------------------

     CUMULATIVE VOLUME      L**3       RATES FOR THIS TIME STEP      L**3/T          PACKAGE NAME    
     ------------------                 ------------------------                     ----------------

           IN:                                      IN:
           ---                                      ---
              STO-SS =           0.0000                STO-SS =           0.0000     STORAGE                          
              STO-SY =           0.0000                STO-SY =           0.0000     STORAGE                          
                 WEL =           0.0000                   WEL =           0.0000     WEL-1                            
                RCHA =     3275889.4403                  RCHA =      171000.0000     RCH-1                            
                 CHD =           0.0000                   CHD =           0.0000     CHD-FROM-IBOUND                  

            TOTAL IN =     3275889.4403              TOTAL IN =      171000.0000

          OUT:                                     OUT:
          ----                                     ----
              STO-SS =     1544064.6220                STO-SS =       82639.6231     STORAGE                          
              STO-SY =       47715.2143                STO-SY =        2552.2059     STORAGE                          
                 WEL =           0.0000                   WEL =           0.0000     WEL-1                            
                RCHA =           0.0000                  RCHA =           0.0000     RCH-1                            
                 CHD =     1684109.6132                   CHD =       85808.1720     CHD-FROM-IBOUND                  

           TOTAL OUT =     3275889.4496             TOTAL OUT =      171000.0009

            IN - OUT =      -9.2951E-03              IN - OUT =      -9.0039E-04

 PERCENT DISCREPANCY =          -0.00     PERCENT DISCREPANCY =          -0.00




         TIME SUMMARY AT END OF TIME STEP    6 IN STRESS PERIOD    2
                    SECONDS     MINUTES      HOURS       DAYS        YEARS
                    -----------------------------------------------------------
   TIME STEP LENGTH 4.03945E+05  6732.4      112.21      4.6753     1.28002E-02
 STRESS PERIOD TIME 1.61199E+06  26866.      447.77      18.657     5.10808E-02
         TOTAL TIME 1.69839E+06  28306.      471.77      19.657     5.38186E-02


end timestep


start timestep kper="2" kstp="7" mode="normal"

 UBDSV1 SAVING     FLOW-JA-FACE ON UNIT   1015 AT TIME STEP      7, STRESS PERIOD      2
 UBDSV06 SAVING              WEL IN MODEL MUMODEL          PACKAGE MUMODEL         CONNECTED TO MODEL MUMODEL          PACKAGE WEL-1            ON UNIT   1015 AT TIME STEP      7, STRESS PERIOD      2
 UBDSV06 SAVING             RCHA IN MODEL MUMODEL          PACKAGE MUMODEL         CONNECTED TO MODEL MUMODEL          PACKAGE RCH-1            ON UNIT   1015 AT TIME STEP      7, STRESS PERIOD      2

 WEL PACKAGE (WEL-1) FLOW RATES   PERIOD      2   STEP        7
 -----------------------------------------------
   NUMBER   CELLID                    RATE      
 -----------------------------------------------
     1      (1,5,5)               0.0000000     
     2      (1,11,5)              0.0000000     
     3      (1,5,5)               0.0000000     
 -----------------------------------------------




 CHD PACKAGE (CHD-FROM-IBOUND) FLOW RATES   PERIOD      2   STEP        7
 -----------------------------------------------
   NUMBER   CELLID                    RATE      
 -----------------------------------------------
     1      (1,1,1)              -4772.1479     
     2      (1,1,2)              -4772.1423     
     3      (1,1,3)              -4772.1434     
     4      (1,1,4)              -4772.1458     
     5      (1,1,5)              -4772.1478     
     6      (1,1,6)              -4772.1495     
     7      (1,1,7)              -4772.1516     
     8      (1,1,8)              -4772.1544     
     9      (1,1,9)              -4772.1575     
     10     (1,21,1)             -4772.1587     
     11     (1,21,2)             -4772.1533     
     12     (1,21,3)             -4772.1493     
     13     (1,21,4)             -4772.1469     
     14     (1,21,5)             -4772.1447     
     15     (1,21,6)             -4772.1418     
     16     (1,21,7)             -4772.1386     
     17     (1,21,8)             -4772.1384     
     18     (1,21,9)             -4772.1493     
 -----------------------------------------------




 HEAD WILL BE SAVED ON UNIT 1016 AT END OF TIME STEP    7, STRESS PERIOD    2


  VOLUME BUDGET FOR ENTIRE MODEL AT END OF TIME STEP    7, STRESS PERIOD   2
  ---------------------------------------------------------------------------------------------------

     CUMULATIVE VOLUME      L**3       RATES FOR THIS TIME STEP      L**3/T          PACKAGE NAME    
     ------------------                 ------------------------                     ----------------

           IN:                                      IN:
           ---                                      ---
              STO-SS =           0.0000                STO-SS =           0.0000     STORAGE                          
              STO-SY =           0.0000                STO-SY =           0.0000     STORAGE                          
                 WEL =           0.0000                   WEL =           0.0000     WEL-1                            
                RCHA =     4235257.8765                  RCHA =      171000.0000     RCH-1                            
                 CHD =           0.0000                   CHD =           0.0000     CHD-FROM-IBOUND                  

            TOTAL IN =     4235257.8765              TOTAL IN =      171000.0000

          OUT:                                     OUT:
          ----                                     ----
              STO-SS =     2007214.7701                STO-SS =       82552.9300     STORAGE                          
              STO-SY =       62012.6681                STO-SY =        2548.4105     STORAGE                          
                 WEL =           0.0000                   WEL =           0.0000     WEL-1                            
                RCHA =           0.0000                  RCHA =           0.0000     RCH-1                            
                 CHD =     2166030.4562                   CHD =       85898.6611     CHD-FROM-IBOUND                  

           TOTAL OUT =     4235257.8943             TOTAL OUT =      171000.0015

            IN - OUT =      -1.7793E-02              IN - OUT =      -1.5147E-03

 PERCENT DISCREPANCY =          -0.00     PERCENT DISCREPANCY =          -0.00




         TIME SUMMARY AT END OF TIME STEP    7 IN STRESS PERIOD    2
                    SECONDS     MINUTES      HOURS       DAYS        YEARS
                    -----------------------------------------------------------
   TIME STEP LENGTH 4.84734E+05  8078.9      134.65      5.6103     1.53603E-02
 STRESS PERIOD TIME 2.09672E+06  34945.      582.42      24.268     6.64410E-02
         TOTAL TIME 2.18312E+06  36385.      606.42      25.268     6.91789E-02


end timestep


start timestep kper="2" kstp="8" mode="normal"

 UBDSV1 SAVING     FLOW-JA-FACE ON UNIT   1015 AT TIME STEP      8, STRESS PERIOD      2
 UBDSV06 SAVING              WEL IN MODEL MUMODEL          PACKAGE MUMODEL         CONNECTED TO MODEL MUMODEL          PACKAGE WEL-1            ON UNIT   1015 AT TIME STEP      8, STRESS PERIOD      2
 UBDSV06 SAVING             RCHA IN MODEL MUMODEL          PACKAGE MUMODEL         CONNECTED TO MODEL MUMODEL          PACKAGE RCH-1            ON UNIT   1015 AT TIME STEP      8, STRESS PERIOD      2

 WEL PACKAGE (WEL-1) FLOW RATES   PERIOD      2   STEP        8
 -----------------------------------------------
   NUMBER   CELLID                    RATE      
 -----------------------------------------------
     1      (1,5,5)               0.0000000     
     2      (1,11,5)              0.0000000     
     3      (1,5,5)               0.0000000     
 -----------------------------------------------




 CHD PACKAGE (CHD-FROM-IBOUND) FLOW RATES   PERIOD      2   STEP        8
 -----------------------------------------------
   NUMBER   CELLID                    RATE      
 -----------------------------------------------
     1      (1,1,1)              -4778.1099     
     2      (1,1,2)              -4778.1043     
     3      (1,1,3)              -4778.1054     
     4      (1,1,4)              -4778.1077     
     5      (1,1,5)              -4778.1097     
     6      (1,1,6)              -4778.1114     
     7      (1,1,7)              -4778.1135     
     8      (1,1,8)              -4778.1163     
     9      (1,1,9)              -4778.1193     
     10     (1,21,1)             -4778.1204     
     11     (1,21,2)             -4778.1151     
     12     (1,21,3)             -4778.1112     
     13     (1,21,4)             -4778.1088     
     14     (1,21,5)             -4778.1066     
     15     (1,21,6)             -4778.1037     
     16     (1,21,7)             -4778.1007     
     17     (1,21,8)             -4778.1007     
     18     (1,21,9)             -4778.1112     
 -----------------------------------------------




 HEAD WILL BE SAVED ON UNIT 1016 AT END OF TIME STEP    8, STRESS PERIOD    2


  VOLUME BUDGET FOR ENTIRE MODEL AT END OF TIME STEP    8, STRESS PERIOD   2
  ---------------------------------------------------------------------------------------------------

     CUMULATIVE VOLUME      L**3       RATES FOR THIS TIME STEP      L**3/T          PACKAGE NAME    
     ------------------                 ------------------------                     ----------------

           IN:                                      IN:
           ---                                      ---
              STO-SS =           0.0000                STO-SS =           0.0000     STORAGE                          
              STO-SY =           0.0000                STO-SY =           0.0000     STORAGE                          
                 WEL =           0.0000                   WEL =           0.0000     WEL-1                            
                RCHA =     5386500.0000                  RCHA =      171000.0000     RCH-1                            
                 CHD =           0.0000                   CHD =           0.0000     CHD-FROM-IBOUND                  

            TOTAL IN =     5386500.0000              TOTAL IN =      171000.0000

          OUT:                                     OUT:
          ----                                     ----
              STO-SS =     2562302.7380                STO-SS =       82450.1124     STORAGE                          
              STO-SY =       79139.3413                STO-SY =        2543.9141     STORAGE                          
                 WEL =           0.0000                   WEL =           0.0000     WEL-1                            
                RCHA =           0.0000                  RCHA =           0.0000     RCH-1                            
                 CHD =     2745057.9556                   CHD =       86005.9760     CHD-FROM-IBOUND                  

           TOTAL OUT =     5386500.0348             TOTAL OUT =      171000.0025

            IN - OUT =      -3.4839E-02              IN - OUT =      -2.5319E-03

 PERCENT DISCREPANCY =          -0.00     PERCENT DISCREPANCY =          -0.00




         TIME SUMMARY AT END OF TIME STEP    8 IN STRESS PERIOD    2
                    SECONDS     MINUTES      HOURS       DAYS        YEARS
                    -----------------------------------------------------------
   TIME STEP LENGTH 5.81680E+05  9694.7      161.58      6.7324     1.84323E-02
 STRESS PERIOD TIME 2.67840E+06  44640.      744.00      31.000     8.48734E-02
         TOTAL TIME 2.76480E+06  46080.      768.00      32.000     8.76112E-02


end timestep


start timestep kper="3" kstp="1" mode="normal"


 OUTPUT CONTROL FOR STRESS PERIOD 3 IS REPEATED USING SETTINGS FROM A PREVIOUS STRESS PERIOD.


 STRESS PERIOD 3 IS TRANSIENT


 REUSING WELS FROM LAST STRESS PERIOD

 REUSING CHDS FROM LAST STRESS PERIOD
 UBDSV1 SAVING     FLOW-JA-FACE ON UNIT   1015 AT TIME STEP      1, STRESS PERIOD      3
 UBDSV06 SAVING              WEL IN MODEL MUMODEL          PACKAGE MUMODEL         CONNECTED TO MODEL MUMODEL          PACKAGE WEL-1            ON UNIT   1015 AT TIME STEP      1, STRESS PERIOD      3
 UBDSV06 SAVING             RCHA IN MODEL MUMODEL          PACKAGE MUMODEL         CONNECTED TO MODEL MUMODEL          PACKAGE RCH-1            ON UNIT   1015 AT TIME STEP      1, STRESS PERIOD      3

 WEL PACKAGE (WEL-1) FLOW RATES   PERIOD      3   STEP        1
 -----------------------------------------------
   NUMBER   CELLID                    RATE      
 -----------------------------------------------
     1      (1,5,5)               0.0000000     
     2      (1,11,5)              0.0000000     
     3      (1,5,5)               0.0000000     
 -----------------------------------------------




 CHD PACKAGE (CHD-FROM-IBOUND) FLOW RATES   PERIOD      3   STEP        1
 -----------------------------------------------
   NUMBER   CELLID                    RATE      
 -----------------------------------------------
     1      (1,1,1)              -4785.9430     
     2      (1,1,2)              -4785.9375     
     3      (1,1,3)              -4785.9385     
     4      (1,1,4)              -4785.9409     
     5      (1,1,5)              -4785.9429     
     6      (1,1,6)              -4785.9446     
     7      (1,1,7)              -4785.9466     
     8      (1,1,8)              -4785.9494     
     9      (1,1,9)              -4785.9524     
     10     (1,21,1)             -4785.9535     
     11     (1,21,2)             -4785.9482     
     12     (1,21,3)             -4785.9443     
     13     (1,21,4)             -4785.9420     
     14     (1,21,5)             -4785.9398     
     15     (1,21,6)             -4785.9369     
     16     (1,21,7)             -4785.9338     
     17     (1,21,8)             -4785.9339     
     18     (1,21,9)             -4785.9444     
 -----------------------------------------------




 HEAD WILL BE SAVED ON UNIT 1016 AT END OF TIME STEP    1, STRESS PERIOD    3


  VOLUME BUDGET FOR ENTIRE MODEL AT END OF TIME STEP    1, STRESS PERIOD   3
  ---------------------------------------------------------------------------------------------------

     CUMULATIVE VOLUME      L**3       RATES FOR THIS TIME STEP      L**3/T          PACKAGE NAME    
     ------------------                 ------------------------                     ----------------

           IN:                                      IN:
           ---                                      ---
              STO-SS =           0.0000                STO-SS =           0.0000     STORAGE                          
              STO-SY =           0.0000                STO-SY =           0.0000     STORAGE                          
                 WEL =           0.0000                   WEL =           0.0000     WEL-1                            
                RCHA =     6257093.7435                  RCHA =      513000.0000     RCH-1                            
                 CHD =           0.0000                   CHD =           0.0000     CHD-FROM-IBOUND                  

            TOTAL IN =     6257093.7435              TOTAL IN =      513000.0000

          OUT:                                     OUT:
          ----                                     ----
              STO-SS =     3264991.3794                STO-SS =      414061.4101     STORAGE                          
              STO-SY =      100847.5331                STO-SY =       12791.6178     STORAGE                          
                 WEL =           0.0000                   WEL =           0.0000     WEL-1                            
                RCHA =           0.0000                  RCHA =           0.0000     RCH-1                            
                 CHD =     2891254.8662                   CHD =       86146.9723     CHD-FROM-IBOUND                  

           TOTAL OUT =     6257093.7788             TOTAL OUT =      513000.0003

            IN - OUT =      -3.5280E-02              IN - OUT =      -2.5984E-04

 PERCENT DISCREPANCY =          -0.00     PERCENT DISCREPANCY =          -0.00




         TIME SUMMARY AT END OF TIME STEP    1 IN STRESS PERIOD    3
                    SECONDS     MINUTES      HOURS       DAYS        YEARS
                    -----------------------------------------------------------
   TIME STEP LENGTH 1.46626E+05  2443.8      40.730      1.6971     4.64631E-03
 STRESS PERIOD TIME 1.46626E+05  2443.8      40.730      1.6971     4.64631E-03
         TOTAL TIME 2.91143E+06  48524.      808.73      33.697     9.22575E-02


end timestep


start timestep kper="3" kstp="2" mode="normal"

 UBDSV1 SAVING     FLOW-JA-FACE ON UNIT   1015 AT TIME STEP      2, STRESS PERIOD      3
 UBDSV06 SAVING              WEL IN MODEL MUMODEL          PACKAGE MUMODEL         CONNECTED TO MODEL MUMODEL          PACKAGE WEL-1            ON UNIT   1015 AT TIME STEP      2, STRESS PERIOD      3
 UBDSV06 SAVING             RCHA IN MODEL MUMODEL          PACKAGE MUMODEL         CONNECTED TO MODEL MUMODEL          PACKAGE RCH-1            ON UNIT   1015 AT TIME STEP      2, STRESS PERIOD      3

 WEL PACKAGE (WEL-1) FLOW RATES   PERIOD      3   STEP        2
 -----------------------------------------------
   NUMBER   CELLID                    RATE      
 -----------------------------------------------
     1      (1,5,5)               0.0000000     
     2      (1,11,5)              0.0000000     
     3      (1,5,5)               0.0000000     
 -----------------------------------------------




 CHD PACKAGE (CHD-FROM-IBOUND) FLOW RATES   PERIOD      3   STEP        2
 -----------------------------------------------
   NUMBER   CELLID                    RATE      
 -----------------------------------------------
     1      (1,1,1)              -4795.3070     
     2      (1,1,2)              -4795.3016     
     3      (1,1,3)              -4795.3026     
     4      (1,1,4)              -4795.3049     
     5      (1,1,5)              -4795.3069     
     6      (1,1,6)              -4795.3086     
     7      (1,1,7)              -4795.3106     
     8      (1,1,8)              -4795.3134     
     9      (1,1,9)              -4795.3164     
     10     (1,21,1)             -4795.3174     
     11     (1,21,2)             -4795.3122     
     12     (1,21,3)             -4795.3083     
     13     (1,21,4)             -4795.3060     
     14     (1,21,5)             -4795.3038     
     15     (1,21,6)             -4795.3009     
     16     (1,21,7)             -4795.2979     
     17     (1,21,8)             -4795.2980     
     18     (1,21,9)             -4795.3084     
 -----------------------------------------------




 HEAD WILL BE SAVED ON UNIT 1016 AT END OF TIME STEP    2, STRESS PERIOD    3


  VOLUME BUDGET FOR ENTIRE MODEL AT END OF TIME STEP    2, STRESS PERIOD   3
  ---------------------------------------------------------------------------------------------------

     CUMULATIVE VOLUME      L**3       RATES FOR THIS TIME STEP      L**3/T          PACKAGE NAME    
     ------------------                 ------------------------                     ----------------

           IN:                                      IN:
           ---                                      ---
              STO-SS =           0.0000                STO-SS =           0.0000     STORAGE                          
              STO-SY =           0.0000                STO-SY =           0.0000     STORAGE                          
                 WEL =           0.0000                   WEL =           0.0000     WEL-1                            
                RCHA =     7301806.2357                  RCHA =      513000.0000     RCH-1                            
                 CHD =           0.0000                   CHD =           0.0000     CHD-FROM-IBOUND                  

            TOTAL IN =     7301806.2357              TOTAL IN =      513000.0000

          OUT:                                     OUT:
          ----                                     ----
              STO-SS =     4107892.6095                STO-SS =      413901.7522     STORAGE                          
              STO-SY =      126879.2500                STO-SY =       12782.7233     STORAGE                          
                 WEL =           0.0000                   WEL =           0.0000     WEL-1                            
                RCHA =           0.0000                  RCHA =           0.0000     RCH-1                            
                 CHD =     3067034.4123                   CHD =       86315.5249     CHD-FROM-IBOUND                  

           TOTAL OUT =     7301806.2718             TOTAL OUT =      513000.0004

            IN - OUT =      -3.6196E-02              IN - OUT =      -4.4974E-04

 PERCENT DISCREPANCY =          -0.00     PERCENT DISCREPANCY =          -0.00




         TIME SUMMARY AT END OF TIME STEP    2 IN STRESS PERIOD    3
                    SECONDS     MINUTES      HOURS       DAYS        YEARS
                    -----------------------------------------------------------
   TIME STEP LENGTH 1.75952E+05  2932.5      48.875      2.0365     5.57557E-03
 STRESS PERIOD TIME 3.22578E+05  5376.3      89.605      3.7335     1.02219E-02
         TOTAL TIME 3.08738E+06  51456.      857.60      35.734     9.78331E-02


end timestep


start timestep kper="3" kstp="3" mode="normal"

 UBDSV1 SAVING     FLOW-JA-FACE ON UNIT   1015 AT TIME STEP      3, STRESS PERIOD      3
 UBDSV06 SAVING              WEL IN MODEL MUMODEL          PACKAGE MUMODEL         CONNECTED TO MODEL MUMODEL          PACKAGE WEL-1            ON UNIT   1015 AT TIME STEP      3, STRESS PERIOD      3
 UBDSV06 SAVING             RCHA IN MODEL MUMODEL          PACKAGE MUMODEL         CONNECTED TO MODEL MUMODEL          PACKAGE RCH-1            ON UNIT   1015 AT TIME STEP      3, STRESS PERIOD      3

 WEL PACKAGE (WEL-1) FLOW RATES   PERIOD      3   STEP        3
 -----------------------------------------------
   NUMBER   CELLID                    RATE      
 -----------------------------------------------
     1      (1,5,5)               0.0000000     
     2      (1,11,5)              0.0000000     
     3      (1,5,5)               0.0000000     
 -----------------------------------------------




 CHD PACKAGE (CHD-FROM-IBOUND) FLOW RATES   PERIOD      3   STEP        3
 -----------------------------------------------
   NUMBER   CELLID                    RATE      
 -----------------------------------------------
     1      (1,1,1)              -4806.4933     
     2      (1,1,2)              -4806.4880     
     3      (1,1,3)              -4806.4889     
     4      (1,1,4)              -4806.4912     
     5      (1,1,5)              -4806.4932     
     6      (1,1,6)              -4806.4949     
     7      (1,1,7)              -4806.4969     
     8      (1,1,8)              -4806.4997     
     9      (1,1,9)              -4806.5027     
     10     (1,21,1)             -4806.5037     
     11     (1,21,2)             -4806.4985     
     12     (1,21,3)             -4806.4946     
     13     (1,21,4)             -4806.4923     
     14     (1,21,5)             -4806.4901     
     15     (1,21,6)             -4806.4873     
     16     (1,21,7)             -4806.4843     
     17     (1,21,8)             -4806.4844     
     18     (1,21,9)             -4806.4947     
 -----------------------------------------------




 HEAD WILL BE SAVED ON UNIT 1016 AT END OF TIME STEP    3, STRESS PERIOD    3


  VOLUME BUDGET FOR ENTIRE MODEL AT END OF TIME STEP    3, STRESS PERIOD   3
  ---------------------------------------------------------------------------------------------------

     CUMULATIVE VOLUME      L**3       RATES FOR THIS TIME STEP      L**3/T          PACKAGE NAME    
     ------------------                 ------------------------                     ----------------

           IN:                                      IN:
           ---                                      ---
              STO-SS =           0.0000                STO-SS =           0.0000     STORAGE                          
              STO-SY =           0.0000                STO-SY =           0.0000     STORAGE                          
                 WEL =           0.0000                   WEL =           0.0000     WEL-1                            
                RCHA =     8555461.2263                  RCHA =      513000.0000     RCH-1                            
                 CHD =           0.0000                   CHD =           0.0000     CHD-FROM-IBOUND                  

            TOTAL IN =     8555461.2263              TOTAL IN =      513000.0000

          OUT:                                     OUT:
          ----                                     ----
              STO-SS =     5118907.9872                STO-SS =      413711.0231     STORAGE                          
              STO-SY =      158091.3470                STO-SY =       12772.0991     STORAGE                          
                 WEL =           0.0000                   WEL =           0.0000     WEL-1                            
                RCHA =           0.0000                  RCHA =           0.0000     RCH-1                            
                 CHD =     3278461.9302                   CHD =       86516.8786     CHD-FROM-IBOUND                  

           TOTAL OUT =     8555461.2643             TOTAL OUT =      513000.0008

            IN - OUT =      -3.8071E-02              IN - OUT =      -7.6752E-04

 PERCENT DISCREPANCY =          -0.00     PERCENT DISCREPANCY =          -0.00




         TIME SUMMARY AT END OF TIME STEP    3 IN STRESS PERIOD    3
                    SECONDS     MINUTES      HOURS       DAYS        YEARS
                    -----------------------------------------------------------
   TIME STEP LENGTH 2.11142E+05  3519.0      58.651      2.4438     6.69068E-03
 STRESS PERIOD TIME 5.33720E+05  8895.3      148.26      6.1773     1.69126E-02
         TOTAL TIME 3.29852E+06  54975.      916.26      38.177     0.10452    


end timestep


start timestep kper="3" kstp="4" mode="normal"

 UBDSV1 SAVING     FLOW-JA-FACE ON UNIT   1015 AT TIME STEP      4, STRESS PERIOD      3
 UBDSV06 SAVING              WEL IN MODEL MUMODEL          PACKAGE MUMODEL         CONNECTED TO MODEL MUMODEL          PACKAGE WEL-1            ON UNIT   1015 AT TIME STEP      4, STRESS PERIOD      3
 UBDSV06 SAVING             RCHA IN MODEL MUMODEL          PACKAGE MUMODEL         CONNECTED TO MODEL MUMODEL          PACKAGE RCH-1            ON UNIT   1015 AT TIME STEP      4, STRESS PERIOD      3

 WEL PACKAGE (WEL-1) FLOW RATES   PERIOD      3   STEP        4
 -----------------------------------------------
   NUMBER   CELLID                    RATE      
 -----------------------------------------------
     1      (1,5,5)               0.0000000     
     2      (1,11,5)              0.0000000     
     3      (1,5,5)               0.0000000     
 -----------------------------------------------




 CHD PACKAGE (CHD-FROM-IBOUND) FLOW RATES   PERIOD      3   STEP        4
 -----------------------------------------------
   NUMBER   CELLID                    RATE      
 -----------------------------------------------
     1      (1,1,1)              -4819.8449     
     2      (1,1,2)              -4819.8396     
     3      (1,1,3)              -4819.8405     
     4      (1,1,4)              -4819.8428     
     5      (1,1,5)              -4819.8448     
     6      (1,1,6)              -4819.8465     
     7      (1,1,7)              -4819.8485     
     8      (1,1,8)              -4819.8513     
     9      (1,1,9)              -4819.8543     
     10     (1,21,1)             -4819.8552     
     11     (1,21,2)             -4819.8500     
     12     (1,21,3)             -4819.8462     
     13     (1,21,4)             -4819.8439     
     14     (1,21,5)             -4819.8417     
     15     (1,21,6)             -4819.8389     
     16     (1,21,7)             -4819.8359     
     17     (1,21,8)             -4819.8361     
     18     (1,21,9)             -4819.8463     
 -----------------------------------------------




 HEAD WILL BE SAVED ON UNIT 1016 AT END OF TIME STEP    4, STRESS PERIOD    3


  VOLUME BUDGET FOR ENTIRE MODEL AT END OF TIME STEP    4, STRESS PERIOD   3
  ---------------------------------------------------------------------------------------------------

     CUMULATIVE VOLUME      L**3       RATES FOR THIS TIME STEP      L**3/T          PACKAGE NAME    
     ------------------                 ------------------------                     ----------------

           IN:                                      IN:
           ---                                      ---
              STO-SS =           0.0000                STO-SS =           0.0000     STORAGE                          
              STO-SY =           0.0000                STO-SY =           0.0000     STORAGE                          
                 WEL =           0.0000                   WEL =           0.0000     WEL-1                            
                RCHA =    10059847.2150                  RCHA =      513000.0000     RCH-1                            
                 CHD =           0.0000                   CHD =           0.0000     CHD-FROM-IBOUND                  

            TOTAL IN =    10059847.2150              TOTAL IN =      513000.0000

          OUT:                                     OUT:
          ----                                     ----
              STO-SS =     6331458.8529                STO-SS =      413483.3738     STORAGE                          
              STO-SY =      195508.6811                STO-SY =       12759.4198     STORAGE                          
                 WEL =           0.0000                   WEL =           0.0000     WEL-1                            
                RCHA =           0.0000                  RCHA =           0.0000     RCH-1                            
                 CHD =     3532879.7229                   CHD =       86757.2077     CHD-FROM-IBOUND                  

           TOTAL OUT =    10059847.2569             TOTAL OUT =      513000.0013

            IN - OUT =      -4.1890E-02              IN - OUT =      -1.3023E-03

 PERCENT DISCREPANCY =          -0.00     PERCENT DISCREPANCY =          -0.00




         TIME SUMMARY AT END OF TIME STEP    4 IN STRESS PERIOD    3
                    SECONDS     MINUTES      HOURS       DAYS        YEARS
                    -----------------------------------------------------------
   TIME STEP LENGTH 2.53370E+05  4222.8      70.381      2.9325     8.02882E-03
 STRESS PERIOD TIME 7.87090E+05  13118.      218.64      9.1098     2.49414E-02
         TOTAL TIME 3.55189E+06  59198.      986.64      41.110     0.11255    


end timestep


start timestep kper="3" kstp="5" mode="normal"

 UBDSV1 SAVING     FLOW-JA-FACE ON UNIT   1015 AT TIME STEP      5, STRESS PERIOD      3
 UBDSV06 SAVING              WEL IN MODEL MUMODEL          PACKAGE MUMODEL         CONNECTED TO MODEL MUMODEL          PACKAGE WEL-1            ON UNIT   1015 AT TIME STEP      5, STRESS PERIOD      3
 UBDSV06 SAVING             RCHA IN MODEL MUMODEL          PACKAGE MUMODEL         CONNECTED TO MODEL MUMODEL          PACKAGE RCH-1            ON UNIT   1015 AT TIME STEP      5, STRESS PERIOD      3

 WEL PACKAGE (WEL-1) FLOW RATES   PERIOD      3   STEP        5
 -----------------------------------------------
   NUMBER   CELLID                    RATE      
 -----------------------------------------------
     1      (1,5,5)               0.0000000     
     2      (1,11,5)              0.0000000     
     3      (1,5,5)               0.0000000     
 -----------------------------------------------




 CHD PACKAGE (CHD-FROM-IBOUND) FLOW RATES   PERIOD      3   STEP        5
 -----------------------------------------------
   NUMBER   CELLID                    RATE      
 -----------------------------------------------
     1      (1,1,1)              -4835.7646     
     2      (1,1,2)              -4835.7594     
     3      (1,1,3)              -4835.7602     
     4      (1,1,4)              -4835.7625     
     5      (1,1,5)              -4835.7644     
     6      (1,1,6)              -4835.7661     
     7      (1,1,7)              -4835.7681     
     8      (1,1,8)              -4835.7709     
     9      (1,1,9)              -4835.7739     
     10     (1,21,1)             -4835.7748     
     11     (1,21,2)             -4835.7696     
     12     (1,21,3)             -4835.7658     
     13     (1,21,4)             -4835.7635     
     14     (1,21,5)             -4835.7614     
     15     (1,21,6)             -4835.7586     
     16     (1,21,7)             -4835.7557     
     17     (1,21,8)             -4835.7559     
     18     (1,21,9)             -4835.7660     
 -----------------------------------------------




 HEAD WILL BE SAVED ON UNIT 1016 AT END OF TIME STEP    5, STRESS PERIOD    3


  VOLUME BUDGET FOR ENTIRE MODEL AT END OF TIME STEP    5, STRESS PERIOD   3
  ---------------------------------------------------------------------------------------------------

     CUMULATIVE VOLUME      L**3       RATES FOR THIS TIME STEP      L**3/T          PACKAGE NAME    
     ------------------                 ------------------------                     ----------------

           IN:                                      IN:
           ---                                      ---
              STO-SS =           0.0000                STO-SS =           0.0000     STORAGE                          
              STO-SY =           0.0000                STO-SY =           0.0000     STORAGE                          
                 WEL =           0.0000                   WEL =           0.0000     WEL-1                            
                RCHA =    11865110.4015                  RCHA =      513000.0000     RCH-1                            
                 CHD =           0.0000                   CHD =           0.0000     CHD-FROM-IBOUND                  

            TOTAL IN =    11865110.4015              TOTAL IN =      513000.0000

          OUT:                                     OUT:
          ----                                     ----
              STO-SS =     7785564.6961                STO-SS =      413211.9367     STORAGE                          
              STO-SY =      240356.2890                STO-SY =       12744.3040     STORAGE                          
                 WEL =           0.0000                   WEL =           0.0000     WEL-1                            
                RCHA =           0.0000                  RCHA =           0.0000     RCH-1                            
                 CHD =     3839189.4661                   CHD =       87043.7615     CHD-FROM-IBOUND                  

           TOTAL OUT =    11865110.4512             TOTAL OUT =      513000.0022

            IN - OUT =      -4.9711E-02              IN - OUT =      -2.2224E-03

 PERCENT DISCREPANCY =          -0.00     PERCENT DISCREPANCY =          -0.00




         TIME SUMMARY AT END OF TIME STEP    5 IN STRESS PERIOD    3
                    SECONDS     MINUTES      HOURS       DAYS        YEARS
                    -----------------------------------------------------------
   TIME STEP LENGTH 3.04044E+05  5067.4      84.457      3.5190     9.63458E-03
 STRESS PERIOD TIME 1.09113E+06  18186.      303.09      12.629     3.45760E-02
         TOTAL TIME 3.85593E+06  64266.      1071.1      44.629     0.12219    


end timestep


start timestep kper="3" kstp="6" mode="normal"

 UBDSV1 SAVING     FLOW-JA-FACE ON UNIT   1015 AT TIME STEP      6, STRESS PERIOD      3
 UBDSV06 SAVING              WEL IN MODEL MUMODEL          PACKAGE MUMODEL         CONNECTED TO MODEL MUMODEL          PACKAGE WEL-1            ON UNIT   1015 AT TIME STEP      6, STRESS PERIOD      3
 UBDSV06 SAVING             RCHA IN MODEL MUMODEL          PACKAGE MUMODEL         CONNECTED TO MODEL MUMODEL          PACKAGE RCH-1            ON UNIT   1015 AT TIME STEP      6, STRESS PERIOD      3

 WEL PACKAGE (WEL-1) FLOW RATES   PERIOD      3   STEP        6
 -----------------------------------------------
   NUMBER   CELLID                    RATE      
 -----------------------------------------------
     1      (1,5,5)               0.0000000     
     2      (1,11,5)              0.0000000     
     3      (1,5,5)               0.0000000     
 -----------------------------------------------




 CHD PACKAGE (CHD-FROM-IBOUND) FLOW RATES   PERIOD      3   STEP        6
 -----------------------------------------------
   NUMBER   CELLID                    RATE      
 -----------------------------------------------
     1      (1,1,1)              -4854.7232     
     2      (1,1,2)              -4854.7180     
     3      (1,1,3)              -4854.7188     
     4      (1,1,4)              -4854.7211     
     5      (1,1,5)              -4854.7230     
     6      (1,1,6)              -4854.7247     
     7      (1,1,7)              -4854.7267     
     8      (1,1,8)              -4854.7295     
     9      (1,1,9)              -4854.7324     
     10     (1,21,1)             -4854.7332     
     11     (1,21,2)             -4854.7281     
     12     (1,21,3)             -4854.7244     
     13     (1,21,4)             -4854.7221     
     14     (1,21,5)             -4854.7200     
     15     (1,21,6)             -4854.7172     
     16     (1,21,7)             -4854.7144     
     17     (1,21,8)             -4854.7147     
     18     (1,21,9)             -4854.7245     
 -----------------------------------------------




 HEAD WILL BE SAVED ON UNIT 1016 AT END OF TIME STEP    6, STRESS PERIOD    3


  VOLUME BUDGET FOR ENTIRE MODEL AT END OF TIME STEP    6, STRESS PERIOD   3
  ---------------------------------------------------------------------------------------------------

     CUMULATIVE VOLUME      L**3       RATES FOR THIS TIME STEP      L**3/T          PACKAGE NAME    
     ------------------                 ------------------------                     ----------------

           IN:                                      IN:
           ---                                      ---
              STO-SS =           0.0000                STO-SS =           0.0000     STORAGE                          
              STO-SY =           0.0000                STO-SY =           0.0000     STORAGE                          
                 WEL =           0.0000                   WEL =           0.0000     WEL-1                            
                RCHA =    14031426.2252                  RCHA =      513000.0000     RCH-1                            
                 CHD =           0.0000                   CHD =           0.0000     CHD-FROM-IBOUND                  

            TOTAL IN =    14031426.2252              TOTAL IN =      513000.0000

          OUT:                                     OUT:
          ----                                     ----
              STO-SS =     9529126.6563                STO-SS =      412888.6821     STORAGE                          
              STO-SY =      294097.4143                STO-SY =       12726.3056     STORAGE                          
                 WEL =           0.0000                   WEL =           0.0000     WEL-1                            
                RCHA =           0.0000                  RCHA =           0.0000     RCH-1                            
                 CHD =     4208202.2203                   CHD =       87385.0160     CHD-FROM-IBOUND                  

           TOTAL OUT =    14031426.2909             TOTAL OUT =      513000.0038

            IN - OUT =      -6.5646E-02              IN - OUT =      -3.7735E-03

 PERCENT DISCREPANCY =          -0.00     PERCENT DISCREPANCY =          -0.00




         TIME SUMMARY AT END OF TIME STEP    6 IN STRESS PERIOD    3
                    SECONDS     MINUTES      HOURS       DAYS        YEARS
                    -----------------------------------------------------------
   TIME STEP LENGTH 3.64853E+05  6080.9      101.35      4.2228     1.15615E-02
 STRESS PERIOD TIME 1.45599E+06  24266.      404.44      16.852     4.61375E-02
         TOTAL TIME 4.22079E+06  70346.      1172.4      48.852     0.13375    


end timestep


start timestep kper="3" kstp="7" mode="normal"

 UBDSV1 SAVING     FLOW-JA-FACE ON UNIT   1015 AT TIME STEP      7, STRESS PERIOD      3
 UBDSV06 SAVING              WEL IN MODEL MUMODEL          PACKAGE MUMODEL         CONNECTED TO MODEL MUMODEL          PACKAGE WEL-1            ON UNIT   1015 AT TIME STEP      7, STRESS PERIOD      3
 UBDSV06 SAVING             RCHA IN MODEL MUMODEL          PACKAGE MUMODEL         CONNECTED TO MODEL MUMODEL          PACKAGE RCH-1            ON UNIT   1015 AT TIME STEP      7, STRESS PERIOD      3

 WEL PACKAGE (WEL-1) FLOW RATES   PERIOD      3   STEP        7
 -----------------------------------------------
   NUMBER   CELLID                    RATE      
 -----------------------------------------------
     1      (1,5,5)               0.0000000     
     2      (1,11,5)              0.0000000     
     3      (1,5,5)               0.0000000     
 -----------------------------------------------




 CHD PACKAGE (CHD-FROM-IBOUND) FLOW RATES   PERIOD      3   STEP        7
 -----------------------------------------------
   NUMBER   CELLID                    RATE      
 -----------------------------------------------
     1      (1,1,1)              -4877.2685     
     2      (1,1,2)              -4877.2635     
     3      (1,1,3)              -4877.2642     
     4      (1,1,4)              -4877.2664     
     5      (1,1,5)              -4877.2683     
     6      (1,1,6)              -4877.2700     
     7      (1,1,7)              -4877.2720     
     8      (1,1,8)              -4877.2748     
     9      (1,1,9)              -4877.2777     
     10     (1,21,1)             -4877.2784     
     11     (1,21,2)             -4877.2734     
     12     (1,21,3)             -4877.2697     
     13     (1,21,4)             -4877.2674     
     14     (1,21,5)             -4877.2653     
     15     (1,21,6)             -4877.2626     
     16     (1,21,7)             -4877.2598     
     17     (1,21,8)             -4877.2602     
     18     (1,21,9)             -4877.2699     
 -----------------------------------------------




 HEAD WILL BE SAVED ON UNIT 1016 AT END OF TIME STEP    7, STRESS PERIOD    3


  VOLUME BUDGET FOR ENTIRE MODEL AT END OF TIME STEP    7, STRESS PERIOD   3
  ---------------------------------------------------------------------------------------------------

     CUMULATIVE VOLUME      L**3       RATES FOR THIS TIME STEP      L**3/T          PACKAGE NAME    
     ------------------                 ------------------------                     ----------------

           IN:                                      IN:
           ---                                      ---
              STO-SS =           0.0000                STO-SS =           0.0000     STORAGE                          
              STO-SY =           0.0000                STO-SY =           0.0000     STORAGE                          
                 WEL =           0.0000                   WEL =           0.0000     WEL-1                            
                RCHA =    16631005.2138                  RCHA =      513000.0000     RCH-1                            
                 CHD =           0.0000                   CHD =           0.0000     CHD-FROM-IBOUND                  

            TOTAL IN =    16631005.2138              TOTAL IN =      513000.0000

          OUT:                                     OUT:
          ----                                     ----
              STO-SS =    11619453.0258                STO-SS =      412504.2679     STORAGE                          
              STO-SY =      358478.3257                STO-SY =       12704.9063     STORAGE                          
                 WEL =           0.0000                   WEL =           0.0000     WEL-1                            
                RCHA =           0.0000                  RCHA =           0.0000     RCH-1                            
                 CHD =     4653073.9604                   CHD =       87790.8321     CHD-FROM-IBOUND                  

           TOTAL OUT =    16631005.3118             TOTAL OUT =      513000.0064

            IN - OUT =      -9.8021E-02              IN - OUT =      -6.3889E-03

 PERCENT DISCREPANCY =          -0.00     PERCENT DISCREPANCY =          -0.00




         TIME SUMMARY AT END OF TIME STEP    7 IN STRESS PERIOD    3
                    SECONDS     MINUTES      HOURS       DAYS        YEARS
                    -----------------------------------------------------------
   TIME STEP LENGTH 4.37824E+05  7297.1      121.62      5.0674     1.38738E-02
 STRESS PERIOD TIME 1.89381E+06  31564.      526.06      21.919     6.00113E-02
         TOTAL TIME 4.65861E+06  77644.      1294.1      53.919     0.14762    


end timestep


start timestep kper="3" kstp="8" mode="normal"

 UBDSV1 SAVING     FLOW-JA-FACE ON UNIT   1015 AT TIME STEP      8, STRESS PERIOD      3
 UBDSV06 SAVING              WEL IN MODEL MUMODEL          PACKAGE MUMODEL         CONNECTED TO MODEL MUMODEL          PACKAGE WEL-1            ON UNIT   1015 AT TIME STEP      8, STRESS PERIOD      3
 UBDSV06 SAVING             RCHA IN MODEL MUMODEL          PACKAGE MUMODEL         CONNECTED TO MODEL MUMODEL          PACKAGE RCH-1            ON UNIT   1015 AT TIME STEP      8, STRESS PERIOD      3

 WEL PACKAGE (WEL-1) FLOW RATES   PERIOD      3   STEP        8
 -----------------------------------------------
   NUMBER   CELLID                    RATE      
 -----------------------------------------------
     1      (1,5,5)               0.0000000     
     2      (1,11,5)              0.0000000     
     3      (1,5,5)               0.0000000     
 -----------------------------------------------




 CHD PACKAGE (CHD-FROM-IBOUND) FLOW RATES   PERIOD      3   STEP        8
 -----------------------------------------------
   NUMBER   CELLID                    RATE      
 -----------------------------------------------
     1      (1,1,1)              -4904.0342     
     2      (1,1,2)              -4904.0293     
     3      (1,1,3)              -4904.0300     
     4      (1,1,4)              -4904.0322     
     5      (1,1,5)              -4904.0341     
     6      (1,1,6)              -4904.0357     
     7      (1,1,7)              -4904.0377     
     8      (1,1,8)              -4904.0404     
     9      (1,1,9)              -4904.0434     
     10     (1,21,1)             -4904.0440     
     11     (1,21,2)             -4904.0390     
     12     (1,21,3)             -4904.0353     
     13     (1,21,4)             -4904.0331     
     14     (1,21,5)             -4904.0311     
     15     (1,21,6)             -4904.0284     
     16     (1,21,7)             -4904.0257     
     17     (1,21,8)             -4904.0262     
     18     (1,21,9)             -4904.0356     
 -----------------------------------------------




 HEAD WILL BE SAVED ON UNIT 1016 AT END OF TIME STEP    8, STRESS PERIOD    3


  VOLUME BUDGET FOR ENTIRE MODEL AT END OF TIME STEP    8, STRESS PERIOD   3
  ---------------------------------------------------------------------------------------------------

     CUMULATIVE VOLUME      L**3       RATES FOR THIS TIME STEP      L**3/T          PACKAGE NAME    
     ------------------                 ------------------------                     ----------------

           IN:                                      IN:
           ---                                      ---
              STO-SS =           0.0000                STO-SS =           0.0000     STORAGE                          
              STO-SY =           0.0000                STO-SY =           0.0000     STORAGE                          
                 WEL =           0.0000                   WEL =           0.0000     WEL-1                            
                RCHA =    19750500.0000                  RCHA =      513000.0000     RCH-1                            
                 CHD =           0.0000                   CHD =           0.0000     CHD-FROM-IBOUND                  

            TOTAL IN =    19750500.0000              TOTAL IN =      513000.0000

          OUT:                                     OUT:
          ----                                     ----
              STO-SS =    14125069.4784                STO-SS =      412047.8886     STORAGE                          
              STO-SY =      435580.9674                STO-SY =       12679.5067     STORAGE                          
                 WEL =           0.0000                   WEL =           0.0000     WEL-1                            
                RCHA =           0.0000                  RCHA =           0.0000     RCH-1                            
                 CHD =     5189849.7178                   CHD =       88272.6154     CHD-FROM-IBOUND                  

           TOTAL OUT =    19750500.1635             TOTAL OUT =      513000.0108

            IN - OUT =          -0.1635              IN - OUT =      -1.0775E-02

 PERCENT DISCREPANCY =          -0.00     PERCENT DISCREPANCY =          -0.00




         TIME SUMMARY AT END OF TIME STEP    8 IN STRESS PERIOD    3
                    SECONDS     MINUTES      HOURS       DAYS        YEARS
                    -----------------------------------------------------------
   TIME STEP LENGTH 5.25389E+05  8756.5      145.94      6.0809     1.66486E-02
 STRESS PERIOD TIME 2.41920E+06  40320.      672.00      28.000     7.66598E-02
         TOTAL TIME 5.18400E+06  86400.      1440.0      60.000     0.16427    


end timestep


start timestep kper="4" kstp="1" mode="normal"


 OUTPUT CONTROL FOR STRESS PERIOD 4 IS REPEATED USING SETTINGS FROM A PREVIOUS STRESS PERIOD.


 STRESS PERIOD 4 IS TRANSIENT


 REUSING WELS FROM LAST STRESS PERIOD

 REUSING CHDS FROM LAST STRESS PERIOD
 UBDSV1 SAVING     FLOW-JA-FACE ON UNIT   1015 AT TIME STEP      1, STRESS PERIOD      4
 UBDSV06 SAVING              WEL IN MODEL MUMODEL          PACKAGE MUMODEL         CONNECTED TO MODEL MUMODEL          PACKAGE WEL-1            ON UNIT   1015 AT TIME STEP      1, STRESS PERIOD      4
 UBDSV06 SAVING             RCHA IN MODEL MUMODEL          PACKAGE MUMODEL         CONNECTED TO MODEL MUMODEL          PACKAGE RCH-1            ON UNIT   1015 AT TIME STEP      1, STRESS PERIOD      4

 WEL PACKAGE (WEL-1) FLOW RATES   PERIOD      4   STEP        1
 -----------------------------------------------
   NUMBER   CELLID                    RATE      
 -----------------------------------------------
     1      (1,5,5)               0.0000000     
     2      (1,11,5)              0.0000000     
     3      (1,5,5)               0.0000000     
 -----------------------------------------------




 CHD PACKAGE (CHD-FROM-IBOUND) FLOW RATES   PERIOD      4   STEP        1
 -----------------------------------------------
   NUMBER   CELLID                    RATE      
 -----------------------------------------------
     1      (1,1,1)              -4915.7790     
     2      (1,1,2)              -4915.7741     
     3      (1,1,3)              -4915.7748     
     4      (1,1,4)              -4915.7769     
     5      (1,1,5)              -4915.7788     
     6      (1,1,6)              -4915.7805     
     7      (1,1,7)              -4915.7824     
     8      (1,1,8)              -4915.7852     
     9      (1,1,9)              -4915.7881     
     10     (1,21,1)             -4915.7887     
     11     (1,21,2)             -4915.7838     
     12     (1,21,3)             -4915.7801     
     13     (1,21,4)             -4915.7779     
     14     (1,21,5)             -4915.7758     
     15     (1,21,6)             -4915.7731     
     16     (1,21,7)             -4915.7705     
     17     (1,21,8)             -4915.7710     
     18     (1,21,9)             -4915.7804     
 -----------------------------------------------




 HEAD WILL BE SAVED ON UNIT 1016 AT END OF TIME STEP    1, STRESS PERIOD    4


  VOLUME BUDGET FOR ENTIRE MODEL AT END OF TIME STEP    1, STRESS PERIOD   4
  ---------------------------------------------------------------------------------------------------

     CUMULATIVE VOLUME      L**3       RATES FOR THIS TIME STEP      L**3/T          PACKAGE NAME    
     ------------------                 ------------------------                     ----------------

           IN:                                      IN:
           ---                                      ---
              STO-SS =           0.0000                STO-SS =           0.0000     STORAGE                          
              STO-SY =           0.0000                STO-SY =           0.0000     STORAGE                          
                 WEL =           0.0000                   WEL =           0.0000     WEL-1                            
                RCHA =    21035662.1928                  RCHA =      684000.0000     RCH-1                            
                 CHD =           0.0000                   CHD =           0.0000     CHD-FROM-IBOUND                  

            TOTAL IN =    21035662.1928              TOTAL IN =      684000.0000

          OUT:                                     OUT:
          ----                                     ----
              STO-SS =    15210574.6482                STO-SS =      577736.8338     STORAGE                          
              STO-SY =      468986.0631                STO-SY =       17779.1454     STORAGE                          
                 WEL =           0.0000                   WEL =           0.0000     WEL-1                            
                RCHA =           0.0000                  RCHA =           0.0000     RCH-1                            
                 CHD =     5356101.6457                   CHD =       88484.0212     CHD-FROM-IBOUND                  

           TOTAL OUT =    21035662.3570             TOTAL OUT =      684000.0004

            IN - OUT =          -0.1643              IN - OUT =      -3.9811E-04

 PERCENT DISCREPANCY =          -0.00     PERCENT DISCREPANCY =          -0.00




         TIME SUMMARY AT END OF TIME STEP    1 IN STRESS PERIOD    4
                    SECONDS     MINUTES      HOURS       DAYS        YEARS
                    -----------------------------------------------------------
   TIME STEP LENGTH 1.62336E+05  2705.6      45.093      1.8789     5.14413E-03
 STRESS PERIOD TIME 1.62336E+05  2705.6      45.093      1.8789     5.14413E-03
         TOTAL TIME 5.34634E+06  89106.      1485.1      61.879     0.16942    


end timestep


start timestep kper="4" kstp="2" mode="normal"

 UBDSV1 SAVING     FLOW-JA-FACE ON UNIT   1015 AT TIME STEP      2, STRESS PERIOD      4
 UBDSV06 SAVING              WEL IN MODEL MUMODEL          PACKAGE MUMODEL         CONNECTED TO MODEL MUMODEL          PACKAGE WEL-1            ON UNIT   1015 AT TIME STEP      2, STRESS PERIOD      4
 UBDSV06 SAVING             RCHA IN MODEL MUMODEL          PACKAGE MUMODEL         CONNECTED TO MODEL MUMODEL          PACKAGE RCH-1            ON UNIT   1015 AT TIME STEP      2, STRESS PERIOD      4

 WEL PACKAGE (WEL-1) FLOW RATES   PERIOD      4   STEP        2
 -----------------------------------------------
   NUMBER   CELLID                    RATE      
 -----------------------------------------------
     1      (1,5,5)               0.0000000     
     2      (1,11,5)              0.0000000     
     3      (1,5,5)               0.0000000     
 -----------------------------------------------




 CHD PACKAGE (CHD-FROM-IBOUND) FLOW RATES   PERIOD      4   STEP        2
 -----------------------------------------------
   NUMBER   CELLID                    RATE      
 -----------------------------------------------
     1      (1,1,1)              -4929.8151     
     2      (1,1,2)              -4929.8102     
     3      (1,1,3)              -4929.8109     
     4      (1,1,4)              -4929.8130     
     5      (1,1,5)              -4929.8149     
     6      (1,1,6)              -4929.8165     
     7      (1,1,7)              -4929.8185     
     8      (1,1,8)              -4929.8212     
     9      (1,1,9)              -4929.8241     
     10     (1,21,1)             -4929.8247     
     11     (1,21,2)             -4929.8198     
     12     (1,21,3)             -4929.8161     
     13     (1,21,4)             -4929.8140     
     14     (1,21,5)             -4929.8119     
     15     (1,21,6)             -4929.8092     
     16     (1,21,7)             -4929.8066     
     17     (1,21,8)             -4929.8072     
     18     (1,21,9)             -4929.8164     
 -----------------------------------------------




 HEAD WILL BE SAVED ON UNIT 1016 AT END OF TIME STEP    2, STRESS PERIOD    4


  VOLUME BUDGET FOR ENTIRE MODEL AT END OF TIME STEP    2, STRESS PERIOD   4
  ---------------------------------------------------------------------------------------------------

     CUMULATIVE VOLUME      L**3       RATES FOR THIS TIME STEP      L**3/T          PACKAGE NAME    
     ------------------                 ------------------------                     ----------------

           IN:                                      IN:
           ---                                      ---
              STO-SS =           0.0000                STO-SS =           0.0000     STORAGE                          
              STO-SY =           0.0000                STO-SY =           0.0000     STORAGE                          
                 WEL =           0.0000                   WEL =           0.0000     WEL-1                            
                RCHA =    22577856.8241                  RCHA =      684000.0000     RCH-1                            
                 CHD =           0.0000                   CHD =           0.0000     CHD-FROM-IBOUND                  

            TOTAL IN =    22577856.8241              TOTAL IN =      684000.0000

          OUT:                                     OUT:
          ----                                     ----
              STO-SS =    16512644.2689                STO-SS =      577498.8464     STORAGE                          
              STO-SY =      509039.1210                STO-SY =       17764.4839     STORAGE                          
                 WEL =           0.0000                   WEL =           0.0000     WEL-1                            
                RCHA =           0.0000                  RCHA =           0.0000     RCH-1                            
                 CHD =     5556173.6000                   CHD =       88736.6704     CHD-FROM-IBOUND                  

           TOTAL OUT =    22577856.9899             TOTAL OUT =      684000.0007

            IN - OUT =          -0.1658              IN - OUT =      -6.8939E-04

 PERCENT DISCREPANCY =          -0.00     PERCENT DISCREPANCY =          -0.00




         TIME SUMMARY AT END OF TIME STEP    2 IN STRESS PERIOD    4
                    SECONDS     MINUTES      HOURS       DAYS        YEARS
                    -----------------------------------------------------------
   TIME STEP LENGTH 1.94804E+05  3246.7      54.112      2.2547     6.17295E-03
 STRESS PERIOD TIME 3.57140E+05  5952.3      99.206      4.1336     1.13171E-02
         TOTAL TIME 5.54114E+06  92352.      1539.2      64.134     0.17559    


end timestep


start timestep kper="4" kstp="3" mode="normal"

 UBDSV1 SAVING     FLOW-JA-FACE ON UNIT   1015 AT TIME STEP      3, STRESS PERIOD      4
 UBDSV06 SAVING              WEL IN MODEL MUMODEL          PACKAGE MUMODEL         CONNECTED TO MODEL MUMODEL          PACKAGE WEL-1            ON UNIT   1015 AT TIME STEP      3, STRESS PERIOD      4
 UBDSV06 SAVING             RCHA IN MODEL MUMODEL          PACKAGE MUMODEL         CONNECTED TO MODEL MUMODEL          PACKAGE RCH-1            ON UNIT   1015 AT TIME STEP      3, STRESS PERIOD      4

 WEL PACKAGE (WEL-1) FLOW RATES   PERIOD      4   STEP        3
 -----------------------------------------------
   NUMBER   CELLID                    RATE      
 -----------------------------------------------
     1      (1,5,5)               0.0000000     
     2      (1,11,5)              0.0000000     
     3      (1,5,5)               0.0000000     
 -----------------------------------------------




 CHD PACKAGE (CHD-FROM-IBOUND) FLOW RATES   PERIOD      4   STEP        3
 -----------------------------------------------
   NUMBER   CELLID                    RATE      
 -----------------------------------------------
     1      (1,1,1)              -4946.5769     
     2      (1,1,2)              -4946.5721     
     3      (1,1,3)              -4946.5727     
     4      (1,1,4)              -4946.5748     
     5      (1,1,5)              -4946.5767     
     6      (1,1,6)              -4946.5783     
     7      (1,1,7)              -4946.5803     
     8      (1,1,8)              -4946.5830     
     9      (1,1,9)              -4946.5859     
     10     (1,21,1)             -4946.5865     
     11     (1,21,2)             -4946.5816     
     12     (1,21,3)             -4946.5779     
     13     (1,21,4)             -4946.5758     
     14     (1,21,5)             -4946.5737     
     15     (1,21,6)             -4946.5711     
     16     (1,21,7)             -4946.5685     
     17     (1,21,8)             -4946.5691     
     18     (1,21,9)             -4946.5782     
 -----------------------------------------------




 HEAD WILL BE SAVED ON UNIT 1016 AT END OF TIME STEP    3, STRESS PERIOD    4


  VOLUME BUDGET FOR ENTIRE MODEL AT END OF TIME STEP    3, STRESS PERIOD   4
  ---------------------------------------------------------------------------------------------------

     CUMULATIVE VOLUME      L**3       RATES FOR THIS TIME STEP      L**3/T          PACKAGE NAME    
     ------------------                 ------------------------                     ----------------

           IN:                                      IN:
           ---                                      ---
              STO-SS =           0.0000                STO-SS =           0.0000     STORAGE                          
              STO-SY =           0.0000                STO-SY =           0.0000     STORAGE                          
                 WEL =           0.0000                   WEL =           0.0000     WEL-1                            
                RCHA =    24428490.3816                  RCHA =      684000.0000     RCH-1                            
                 CHD =           0.0000                   CHD =           0.0000     CHD-FROM-IBOUND                  

            TOTAL IN =    24428490.3816              TOTAL IN =      684000.0000

          OUT:                                     OUT:
          ----                                     ----
              STO-SS =    18074358.8693                STO-SS =      577214.6422     STORAGE                          
              STO-SY =      557055.4208                STO-SY =       17746.9759     STORAGE                          
                 WEL =           0.0000                   WEL =           0.0000     WEL-1                            
                RCHA =           0.0000                  RCHA =           0.0000     RCH-1                            
                 CHD =     5797076.2605                   CHD =       89038.3832     CHD-FROM-IBOUND                  

           TOTAL OUT =    24428490.5507             TOTAL OUT =      684000.0012

            IN - OUT =          -0.1690              IN - OUT =      -1.1786E-03

 PERCENT DISCREPANCY =          -0.00     PERCENT DISCREPANCY =          -0.00




         TIME SUMMARY AT END OF TIME STEP    3 IN STRESS PERIOD    4
                    SECONDS     MINUTES      HOURS       DAYS        YEARS
                    -----------------------------------------------------------
   TIME STEP LENGTH 2.33764E+05  3896.1      64.935      2.7056     7.40754E-03
 STRESS PERIOD TIME 5.90904E+05  9848.4      164.14      6.8392     1.87246E-02
         TOTAL TIME 5.77490E+06  96248.      1604.1      66.839     0.18300    


end timestep


start timestep kper="4" kstp="4" mode="normal"

 UBDSV1 SAVING     FLOW-JA-FACE ON UNIT   1015 AT TIME STEP      4, STRESS PERIOD      4
 UBDSV06 SAVING              WEL IN MODEL MUMODEL          PACKAGE MUMODEL         CONNECTED TO MODEL MUMODEL          PACKAGE WEL-1            ON UNIT   1015 AT TIME STEP      4, STRESS PERIOD      4
 UBDSV06 SAVING             RCHA IN MODEL MUMODEL          PACKAGE MUMODEL         CONNECTED TO MODEL MUMODEL          PACKAGE RCH-1            ON UNIT   1015 AT TIME STEP      4, STRESS PERIOD      4

 WEL PACKAGE (WEL-1) FLOW RATES   PERIOD      4   STEP        4
 -----------------------------------------------
   NUMBER   CELLID                    RATE      
 -----------------------------------------------
     1      (1,5,5)               0.0000000     
     2      (1,11,5)              0.0000000     
     3      (1,5,5)               0.0000000     
 -----------------------------------------------




 CHD PACKAGE (CHD-FROM-IBOUND) FLOW RATES   PERIOD      4   STEP        4
 -----------------------------------------------
   NUMBER   CELLID                    RATE      
 -----------------------------------------------
     1      (1,1,1)              -4966.5751     
     2      (1,1,2)              -4966.5704     
     3      (1,1,3)              -4966.5710     
     4      (1,1,4)              -4966.5731     
     5      (1,1,5)              -4966.5750     
     6      (1,1,6)              -4966.5766     
     7      (1,1,7)              -4966.5785     
     8      (1,1,8)              -4966.5813     
     9      (1,1,9)              -4966.5842     
     10     (1,21,1)             -4966.5846     
     11     (1,21,2)             -4966.5798     
     12     (1,21,3)             -4966.5762     
     13     (1,21,4)             -4966.5740     
     14     (1,21,5)             -4966.5720     
     15     (1,21,6)             -4966.5694     
     16     (1,21,7)             -4966.5668     
     17     (1,21,8)             -4966.5675     
     18     (1,21,9)             -4966.5765     
 -----------------------------------------------




 HEAD WILL BE SAVED ON UNIT 1016 AT END OF TIME STEP    4, STRESS PERIOD    4


  VOLUME BUDGET FOR ENTIRE MODEL AT END OF TIME STEP    4, STRESS PERIOD   4
  ---------------------------------------------------------------------------------------------------

     CUMULATIVE VOLUME      L**3       RATES FOR THIS TIME STEP      L**3/T          PACKAGE NAME    
     ------------------                 ------------------------                     ----------------

           IN:                                      IN:
           ---                                      ---
              STO-SS =           0.0000                STO-SS =           0.0000     STORAGE                          
              STO-SY =           0.0000                STO-SY =           0.0000     STORAGE                          
                 WEL =           0.0000                   WEL =           0.0000     WEL-1                            
                RCHA =    26649250.6507                  RCHA =      684000.0000     RCH-1                            
                 CHD =           0.0000                   CHD =           0.0000     CHD-FROM-IBOUND                  

            TOTAL IN =    26649250.6507              TOTAL IN =      684000.0000

          OUT:                                     OUT:
          ----                                     ----
              STO-SS =    19947315.4885                STO-SS =      576875.5616     STORAGE                          
              STO-SY =      614607.1645                STO-SY =       17726.0883     STORAGE                          
                 WEL =           0.0000                   WEL =           0.0000     WEL-1                            
                RCHA =           0.0000                  RCHA =           0.0000     RCH-1                            
                 CHD =     6087328.1732                   CHD =       89398.3520     CHD-FROM-IBOUND                  

           TOTAL OUT =    26649250.8263             TOTAL OUT =      684000.0020

            IN - OUT =          -0.1756              IN - OUT =      -2.0121E-03

 PERCENT DISCREPANCY =          -0.00     PERCENT DISCREPANCY =          -0.00




         TIME SUMMARY AT END OF TIME STEP    4 IN STRESS PERIOD    4
                    SECONDS     MINUTES      HOURS       DAYS        YEARS
                    -----------------------------------------------------------
   TIME STEP LENGTH 2.80517E+05  4675.3      77.921      3.2467     8.88905E-03
 STRESS PERIOD TIME 8.71421E+05  14524.      242.06      10.086     2.76137E-02
         TOTAL TIME 6.05542E+06 1.00924E+05  1682.1      70.086     0.19188    


end timestep


start timestep kper="4" kstp="5" mode="normal"

 UBDSV1 SAVING     FLOW-JA-FACE ON UNIT   1015 AT TIME STEP      5, STRESS PERIOD      4
 UBDSV06 SAVING              WEL IN MODEL MUMODEL          PACKAGE MUMODEL         CONNECTED TO MODEL MUMODEL          PACKAGE WEL-1            ON UNIT   1015 AT TIME STEP      5, STRESS PERIOD      4
 UBDSV06 SAVING             RCHA IN MODEL MUMODEL          PACKAGE MUMODEL         CONNECTED TO MODEL MUMODEL          PACKAGE RCH-1            ON UNIT   1015 AT TIME STEP      5, STRESS PERIOD      4

 WEL PACKAGE (WEL-1) FLOW RATES   PERIOD      4   STEP        5
 -----------------------------------------------
   NUMBER   CELLID                    RATE      
 -----------------------------------------------
     1      (1,5,5)               0.0000000     
     2      (1,11,5)              0.0000000     
     3      (1,5,5)               0.0000000     
 -----------------------------------------------




 CHD PACKAGE (CHD-FROM-IBOUND) FLOW RATES   PERIOD      4   STEP        5
 -----------------------------------------------
   NUMBER   CELLID                    RATE      
 -----------------------------------------------
     1      (1,1,1)              -4990.4085     
     2      (1,1,2)              -4990.4039     
     3      (1,1,3)              -4990.4044     
     4      (1,1,4)              -4990.4065     
     5      (1,1,5)              -4990.4083     
     6      (1,1,6)              -4990.4100     
     7      (1,1,7)              -4990.4119     
     8      (1,1,8)              -4990.4146     
     9      (1,1,9)              -4990.4175     
     10     (1,21,1)             -4990.4179     
     11     (1,21,2)             -4990.4131     
     12     (1,21,3)             -4990.4095     
     13     (1,21,4)             -4990.4074     
     14     (1,21,5)             -4990.4054     
     15     (1,21,6)             -4990.4028     
     16     (1,21,7)             -4990.4002     
     17     (1,21,8)             -4990.4010     
     18     (1,21,9)             -4990.4099     
 -----------------------------------------------




 HEAD WILL BE SAVED ON UNIT 1016 AT END OF TIME STEP    5, STRESS PERIOD    4


  VOLUME BUDGET FOR ENTIRE MODEL AT END OF TIME STEP    5, STRESS PERIOD   4
  ---------------------------------------------------------------------------------------------------

     CUMULATIVE VOLUME      L**3       RATES FOR THIS TIME STEP      L**3/T          PACKAGE NAME    
     ------------------                 ------------------------                     ----------------

           IN:                                      IN:
           ---                                      ---
              STO-SS =           0.0000                STO-SS =           0.0000     STORAGE                          
              STO-SY =           0.0000                STO-SY =           0.0000     STORAGE                          
                 WEL =           0.0000                   WEL =           0.0000     WEL-1                            
                RCHA =    29314162.9736                  RCHA =      684000.0000     RCH-1                            
                 CHD =           0.0000                   CHD =           0.0000     CHD-FROM-IBOUND                  

            TOTAL IN =    29314162.9736              TOTAL IN =      684000.0000

          OUT:                                     OUT:
          ----                                     ----
              STO-SS =    22193289.0000                STO-SS =      576471.4541     STORAGE                          
              STO-SY =      683572.2769                STO-SY =       17701.1966     STORAGE                          
                 WEL =           0.0000                   WEL =           0.0000     WEL-1                            
                RCHA =           0.0000                  RCHA =           0.0000     RCH-1                            
                 CHD =     6437301.8856                   CHD =       89827.3527     CHD-FROM-IBOUND                  

           TOTAL OUT =    29314163.1625             TOTAL OUT =      684000.0034

            IN - OUT =          -0.1889              IN - OUT =      -3.4306E-03

 PERCENT DISCREPANCY =          -0.00     PERCENT DISCREPANCY =          -0.00




         TIME SUMMARY AT END OF TIME STEP    5 IN STRESS PERIOD    4
                    SECONDS     MINUTES      HOURS       DAYS        YEARS
                    -----------------------------------------------------------
   TIME STEP LENGTH 3.36621E+05  5610.3      93.506      3.8961     1.06669E-02
 STRESS PERIOD TIME 1.20804E+06  20134.      335.57      13.982     3.82805E-02
         TOTAL TIME 6.39204E+06 1.06534E+05  1775.6      73.982     0.20255    


end timestep


start timestep kper="4" kstp="6" mode="normal"

 UBDSV1 SAVING     FLOW-JA-FACE ON UNIT   1015 AT TIME STEP      6, STRESS PERIOD      4
 UBDSV06 SAVING              WEL IN MODEL MUMODEL          PACKAGE MUMODEL         CONNECTED TO MODEL MUMODEL          PACKAGE WEL-1            ON UNIT   1015 AT TIME STEP      6, STRESS PERIOD      4
 UBDSV06 SAVING             RCHA IN MODEL MUMODEL          PACKAGE MUMODEL         CONNECTED TO MODEL MUMODEL          PACKAGE RCH-1            ON UNIT   1015 AT TIME STEP      6, STRESS PERIOD      4

 WEL PACKAGE (WEL-1) FLOW RATES   PERIOD      4   STEP        6
 -----------------------------------------------
   NUMBER   CELLID                    RATE      
 -----------------------------------------------
     1      (1,5,5)               0.0000000     
     2      (1,11,5)              0.0000000     
     3      (1,5,5)               0.0000000     
 -----------------------------------------------




 CHD PACKAGE (CHD-FROM-IBOUND) FLOW RATES   PERIOD      4   STEP        6
 -----------------------------------------------
   NUMBER   CELLID                    RATE      
 -----------------------------------------------
     1      (1,1,1)              -5018.7756     
     2      (1,1,2)              -5018.7711     
     3      (1,1,3)              -5018.7715     
     4      (1,1,4)              -5018.7736     
     5      (1,1,5)              -5018.7754     
     6      (1,1,6)              -5018.7770     
     7      (1,1,7)              -5018.7789     
     8      (1,1,8)              -5018.7817     
     9      (1,1,9)              -5018.7845     
     10     (1,21,1)             -5018.7849     
     11     (1,21,2)             -5018.7802     
     12     (1,21,3)             -5018.7766     
     13     (1,21,4)             -5018.7745     
     14     (1,21,5)             -5018.7725     
     15     (1,21,6)             -5018.7699     
     16     (1,21,7)             -5018.7674     
     17     (1,21,8)             -5018.7683     
     18     (1,21,9)             -5018.7769     
 -----------------------------------------------




 HEAD WILL BE SAVED ON UNIT 1016 AT END OF TIME STEP    6, STRESS PERIOD    4


  VOLUME BUDGET FOR ENTIRE MODEL AT END OF TIME STEP    6, STRESS PERIOD   4
  ---------------------------------------------------------------------------------------------------

     CUMULATIVE VOLUME      L**3       RATES FOR THIS TIME STEP      L**3/T          PACKAGE NAME    
     ------------------                 ------------------------                     ----------------

           IN:                                      IN:
           ---                                      ---
              STO-SS =           0.0000                STO-SS =           0.0000     STORAGE                          
              STO-SY =           0.0000                STO-SY =           0.0000     STORAGE                          
                 WEL =           0.0000                   WEL =           0.0000     WEL-1                            
                RCHA =    32512057.7611                  RCHA =      684000.0000     RCH-1                            
                 CHD =           0.0000                   CHD =           0.0000     CHD-FROM-IBOUND                  

            TOTAL IN =    32512057.7611              TOTAL IN =      684000.0000

          OUT:                                     OUT:
          ----                                     ----
              STO-SS =    24886208.4947                STO-SS =      575990.4740     STORAGE                          
              STO-SY =      766191.9066                STO-SY =       17671.5716     STORAGE                          
                 WEL =           0.0000                   WEL =           0.0000     WEL-1                            
                RCHA =           0.0000                  RCHA =           0.0000     RCH-1                            
                 CHD =     6859657.5760                   CHD =       90337.9603     CHD-FROM-IBOUND                  

           TOTAL OUT =    32512057.9773             TOTAL OUT =      684000.0058

            IN - OUT =          -0.2162              IN - OUT =      -5.8351E-03

 PERCENT DISCREPANCY =          -0.00     PERCENT DISCREPANCY =          -0.00




         TIME SUMMARY AT END OF TIME STEP    6 IN STRESS PERIOD    4
                    SECONDS     MINUTES      HOURS       DAYS        YEARS
                    -----------------------------------------------------------
   TIME STEP LENGTH 4.03945E+05  6732.4      112.21      4.6753     1.28002E-02
 STRESS PERIOD TIME 1.61199E+06  26866.      447.77      18.657     5.10808E-02
         TOTAL TIME 6.79599E+06 1.13266E+05  1887.8      78.657     0.21535    


end timestep


start timestep kper="4" kstp="7" mode="normal"

 UBDSV1 SAVING     FLOW-JA-FACE ON UNIT   1015 AT TIME STEP      7, STRESS PERIOD      4
 UBDSV06 SAVING              WEL IN MODEL MUMODEL          PACKAGE MUMODEL         CONNECTED TO MODEL MUMODEL          PACKAGE WEL-1            ON UNIT   1015 AT TIME STEP      7, STRESS PERIOD      4
 UBDSV06 SAVING             RCHA IN MODEL MUMODEL          PACKAGE MUMODEL         CONNECTED TO MODEL MUMODEL          PACKAGE RCH-1            ON UNIT   1015 AT TIME STEP      7, STRESS PERIOD      4

 WEL PACKAGE (WEL-1) FLOW RATES   PERIOD      4   STEP        7
 -----------------------------------------------
   NUMBER   CELLID                    RATE      
 -----------------------------------------------
     1      (1,5,5)               0.0000000     
     2      (1,11,5)              0.0000000     
     3      (1,5,5)               0.0000000     
 -----------------------------------------------




 CHD PACKAGE (CHD-FROM-IBOUND) FLOW RATES   PERIOD      4   STEP        7
 -----------------------------------------------
   NUMBER   CELLID                    RATE      
 -----------------------------------------------
     1      (1,1,1)              -5052.4873     
     2      (1,1,2)              -5052.4829     
     3      (1,1,3)              -5052.4833     
     4      (1,1,4)              -5052.4853     
     5      (1,1,5)              -5052.4872     
     6      (1,1,6)              -5052.4888     
     7      (1,1,7)              -5052.4907     
     8      (1,1,8)              -5052.4934     
     9      (1,1,9)              -5052.4962     
     10     (1,21,1)             -5052.4965     
     11     (1,21,2)             -5052.4918     
     12     (1,21,3)             -5052.4883     
     13     (1,21,4)             -5052.4862     
     14     (1,21,5)             -5052.4842     
     15     (1,21,6)             -5052.4817     
     16     (1,21,7)             -5052.4793     
     17     (1,21,8)             -5052.4802     
     18     (1,21,9)             -5052.4887     
 -----------------------------------------------




 HEAD WILL BE SAVED ON UNIT 1016 AT END OF TIME STEP    7, STRESS PERIOD    4


  VOLUME BUDGET FOR ENTIRE MODEL AT END OF TIME STEP    7, STRESS PERIOD   4
  ---------------------------------------------------------------------------------------------------

     CUMULATIVE VOLUME      L**3       RATES FOR THIS TIME STEP      L**3/T          PACKAGE NAME    
     ------------------                 ------------------------                     ----------------

           IN:                                      IN:
           ---                                      ---
              STO-SS =           0.0000                STO-SS =           0.0000     STORAGE                          
              STO-SY =           0.0000                STO-SY =           0.0000     STORAGE                          
                 WEL =           0.0000                   WEL =           0.0000     WEL-1                            
                RCHA =    36349531.5060                  RCHA =      684000.0000     RCH-1                            
                 CHD =           0.0000                   CHD =           0.0000     CHD-FROM-IBOUND                  

            TOTAL IN =    36349531.5060              TOTAL IN =      684000.0000

          OUT:                                     OUT:
          ----                                     ----
              STO-SS =    28114504.9975                STO-SS =      575418.8705     STORAGE                          
              STO-SY =      865137.9541                STO-SY =       17636.3673     STORAGE                          
                 WEL =           0.0000                   WEL =           0.0000     WEL-1                            
                RCHA =           0.0000                  RCHA =           0.0000     RCH-1                            
                 CHD =     7369888.8262                   CHD =       90944.7721     CHD-FROM-IBOUND                  

           TOTAL OUT =    36349531.7778             TOTAL OUT =      684000.0099

            IN - OUT =          -0.2717              IN - OUT =      -9.8940E-03

 PERCENT DISCREPANCY =          -0.00     PERCENT DISCREPANCY =          -0.00




         TIME SUMMARY AT END OF TIME STEP    7 IN STRESS PERIOD    4
                    SECONDS     MINUTES      HOURS       DAYS        YEARS
                    -----------------------------------------------------------
   TIME STEP LENGTH 4.84734E+05  8078.9      134.65      5.6103     1.53603E-02
 STRESS PERIOD TIME 2.09672E+06  34945.      582.42      24.268     6.64410E-02
         TOTAL TIME 7.28072E+06 1.21345E+05  2022.4      84.268     0.23071    


end timestep


start timestep kper="4" kstp="8" mode="normal"

 UBDSV1 SAVING     FLOW-JA-FACE ON UNIT   1015 AT TIME STEP      8, STRESS PERIOD      4
 UBDSV06 SAVING              WEL IN MODEL MUMODEL          PACKAGE MUMODEL         CONNECTED TO MODEL MUMODEL          PACKAGE WEL-1            ON UNIT   1015 AT TIME STEP      8, STRESS PERIOD      4
 UBDSV06 SAVING             RCHA IN MODEL MUMODEL          PACKAGE MUMODEL         CONNECTED TO MODEL MUMODEL          PACKAGE RCH-1            ON UNIT   1015 AT TIME STEP      8, STRESS PERIOD      4

 WEL PACKAGE (WEL-1) FLOW RATES   PERIOD      4   STEP        8
 -----------------------------------------------
   NUMBER   CELLID                    RATE      
 -----------------------------------------------
     1      (1,5,5)               0.0000000     
     2      (1,11,5)              0.0000000     
     3      (1,5,5)               0.0000000     
 -----------------------------------------------




 CHD PACKAGE (CHD-FROM-IBOUND) FLOW RATES   PERIOD      4   STEP        8
 -----------------------------------------------
   NUMBER   CELLID                    RATE      
 -----------------------------------------------
     1      (1,1,1)              -5092.4793     
     2      (1,1,2)              -5092.4750     
     3      (1,1,3)              -5092.4754     
     4      (1,1,4)              -5092.4774     
     5      (1,1,5)              -5092.4792     
     6      (1,1,6)              -5092.4808     
     7      (1,1,7)              -5092.4827     
     8      (1,1,8)              -5092.4853     
     9      (1,1,9)              -5092.4881     
     10     (1,21,1)             -5092.4883     
     11     (1,21,2)             -5092.4838     
     12     (1,21,3)             -5092.4803     
     13     (1,21,4)             -5092.4782     
     14     (1,21,5)             -5092.4762     
     15     (1,21,6)             -5092.4737     
     16     (1,21,7)             -5092.4714     
     17     (1,21,8)             -5092.4724     
     18     (1,21,9)             -5092.4807     
 -----------------------------------------------




 HEAD WILL BE SAVED ON UNIT 1016 AT END OF TIME STEP    8, STRESS PERIOD    4


  VOLUME BUDGET FOR ENTIRE MODEL AT END OF TIME STEP    8, STRESS PERIOD   4
  ---------------------------------------------------------------------------------------------------

     CUMULATIVE VOLUME      L**3       RATES FOR THIS TIME STEP      L**3/T          PACKAGE NAME    
     ------------------                 ------------------------                     ----------------

           IN:                                      IN:
           ---                                      ---
              STO-SS =           0.0000                STO-SS =           0.0000     STORAGE                          
              STO-SY =           0.0000                STO-SY =           0.0000     STORAGE                          
                 WEL =           0.0000                   WEL =           0.0000     WEL-1                            
                RCHA =    40954500.0000                  RCHA =      684000.0000     RCH-1                            
                 CHD =           0.0000                   CHD =           0.0000     CHD-FROM-IBOUND                  

            TOTAL IN =    40954500.0000              TOTAL IN =      684000.0000

          OUT:                                     OUT:
          ----                                     ----
              STO-SS =    31983895.6212                STO-SS =      574740.7805     STORAGE                          
              STO-SY =      983592.0690                STO-SY =       17594.6078     STORAGE                          
                 WEL =           0.0000                   WEL =           0.0000     WEL-1                            
                RCHA =           0.0000                  RCHA =           0.0000     RCH-1                            
                 CHD =     7987012.6941                   CHD =       91664.6284     CHD-FROM-IBOUND                  

           TOTAL OUT =    40954500.3843             TOTAL OUT =      684000.0167

            IN - OUT =          -0.3843              IN - OUT =      -1.6717E-02

 PERCENT DISCREPANCY =          -0.00     PERCENT DISCREPANCY =          -0.00




         TIME SUMMARY AT END OF TIME STEP    8 IN STRESS PERIOD    4
                    SECONDS     MINUTES      HOURS       DAYS        YEARS
                    -----------------------------------------------------------
   TIME STEP LENGTH 5.81680E+05  9694.7      161.58      6.7324     1.84323E-02
 STRESS PERIOD TIME 2.67840E+06  44640.      744.00      31.000     8.48734E-02
         TOTAL TIME 7.86240E+06 1.31040E+05  2184.0      91.000     0.24914    


end timestep


start timestep kper="5" kstp="1" mode="normal"


 OUTPUT CONTROL FOR STRESS PERIOD 5 IS REPEATED USING SETTINGS FROM A PREVIOUS STRESS PERIOD.


 STRESS PERIOD 5 IS TRANSIENT


 REUSING WELS FROM LAST STRESS PERIOD

 REUSING CHDS FROM LAST STRESS PERIOD
 UBDSV1 SAVING     FLOW-JA-FACE ON UNIT   1015 AT TIME STEP      1, STRESS PERIOD      5
 UBDSV06 SAVING              WEL IN MODEL MUMODEL          PACKAGE MUMODEL         CONNECTED TO MODEL MUMODEL          PACKAGE WEL-1            ON UNIT   1015 AT TIME STEP      1, STRESS PERIOD      5
 UBDSV06 SAVING             RCHA IN MODEL MUMODEL          PACKAGE MUMODEL         CONNECTED TO MODEL MUMODEL          PACKAGE RCH-1            ON UNIT   1015 AT TIME STEP      1, STRESS PERIOD      5

 WEL PACKAGE (WEL-1) FLOW RATES   PERIOD      5   STEP        1
 -----------------------------------------------
   NUMBER   CELLID                    RATE      
 -----------------------------------------------
     1      (1,5,5)               0.0000000     
     2      (1,11,5)              0.0000000     
     3      (1,5,5)               0.0000000     
 -----------------------------------------------




 CHD PACKAGE (CHD-FROM-IBOUND) FLOW RATES   PERIOD      5   STEP        1
 -----------------------------------------------
   NUMBER   CELLID                    RATE      
 -----------------------------------------------
     1      (1,1,1)              -5099.8610     
     2      (1,1,2)              -5099.8567     
     3      (1,1,3)              -5099.8570     
     4      (1,1,4)              -5099.8590     
     5      (1,1,5)              -5099.8608     
     6      (1,1,6)              -5099.8624     
     7      (1,1,7)              -5099.8643     
     8      (1,1,8)              -5099.8669     
     9      (1,1,9)              -5099.8697     
     10     (1,21,1)             -5099.8699     
     11     (1,21,2)             -5099.8654     
     12     (1,21,3)             -5099.8619     
     13     (1,21,4)             -5099.8598     
     14     (1,21,5)             -5099.8579     
     15     (1,21,6)             -5099.8554     
     16     (1,21,7)             -5099.8531     
     17     (1,21,8)             -5099.8541     
     18     (1,21,9)             -5099.8623     
 -----------------------------------------------




 HEAD WILL BE SAVED ON UNIT 1016 AT END OF TIME STEP    1, STRESS PERIOD    5


  VOLUME BUDGET FOR ENTIRE MODEL AT END OF TIME STEP    1, STRESS PERIOD   5
  ---------------------------------------------------------------------------------------------------

     CUMULATIVE VOLUME      L**3       RATES FOR THIS TIME STEP      L**3/T          PACKAGE NAME    
     ------------------                 ------------------------                     ----------------

           IN:                                      IN:
           ---                                      ---
              STO-SS =           0.0000                STO-SS =           0.0000     STORAGE                          
              STO-SY =           0.0000                STO-SY =           0.0000     STORAGE                          
                 WEL =           0.0000                   WEL =           0.0000     WEL-1                            
                RCHA =    41887279.0109                  RCHA =      513000.0000     RCH-1                            
                 CHD =           0.0000                   CHD =           0.0000     CHD-FROM-IBOUND                  

            TOTAL IN =    41887279.0109              TOTAL IN =      513000.0000

          OUT:                                     OUT:
          ----                                     ----
              STO-SS =    32727054.4406                STO-SS =      408714.6794     STORAGE                          
              STO-SY =     1006298.4622                STO-SY =       12487.8236     STORAGE                          
                 WEL =           0.0000                   WEL =           0.0000     WEL-1                            
                RCHA =           0.0000                  RCHA =           0.0000     RCH-1                            
                 CHD =     8153926.4929                   CHD =       91797.4974     CHD-FROM-IBOUND                  

           TOTAL OUT =    41887279.3957             TOTAL OUT =      513000.0003

            IN - OUT =          -0.3848              IN - OUT =      -2.8506E-04

 PERCENT DISCREPANCY =          -0.00     PERCENT DISCREPANCY =          -0.00




         TIME SUMMARY AT END OF TIME STEP    1 IN STRESS PERIOD    5
                    SECONDS     MINUTES      HOURS       DAYS        YEARS
                    -----------------------------------------------------------
   TIME STEP LENGTH 1.57100E+05  2618.3      43.639      1.8183     4.97819E-03
 STRESS PERIOD TIME 1.57100E+05  2618.3      43.639      1.8183     4.97819E-03
         TOTAL TIME 8.01950E+06 1.33658E+05  2227.6      92.818     0.25412    


end timestep


start timestep kper="5" kstp="2" mode="normal"

 UBDSV1 SAVING     FLOW-JA-FACE ON UNIT   1015 AT TIME STEP      2, STRESS PERIOD      5
 UBDSV06 SAVING              WEL IN MODEL MUMODEL          PACKAGE MUMODEL         CONNECTED TO MODEL MUMODEL          PACKAGE WEL-1            ON UNIT   1015 AT TIME STEP      2, STRESS PERIOD      5
 UBDSV06 SAVING             RCHA IN MODEL MUMODEL          PACKAGE MUMODEL         CONNECTED TO MODEL MUMODEL          PACKAGE RCH-1            ON UNIT   1015 AT TIME STEP      2, STRESS PERIOD      5

 WEL PACKAGE (WEL-1) FLOW RATES   PERIOD      5   STEP        2
 -----------------------------------------------
   NUMBER   CELLID                    RATE      
 -----------------------------------------------
     1      (1,5,5)               0.0000000     
     2      (1,11,5)              0.0000000     
     3      (1,5,5)               0.0000000     
 -----------------------------------------------




 CHD PACKAGE (CHD-FROM-IBOUND) FLOW RATES   PERIOD      5   STEP        2
 -----------------------------------------------
   NUMBER   CELLID                    RATE      
 -----------------------------------------------
     1      (1,1,1)              -5108.6877     
     2      (1,1,2)              -5108.6835     
     3      (1,1,3)              -5108.6838     
     4      (1,1,4)              -5108.6857     
     5      (1,1,5)              -5108.6875     
     6      (1,1,6)              -5108.6891     
     7      (1,1,7)              -5108.6910     
     8      (1,1,8)              -5108.6937     
     9      (1,1,9)              -5108.6965     
     10     (1,21,1)             -5108.6966     
     11     (1,21,2)             -5108.6921     
     12     (1,21,3)             -5108.6886     
     13     (1,21,4)             -5108.6866     
     14     (1,21,5)             -5108.6846     
     15     (1,21,6)             -5108.6822     
     16     (1,21,7)             -5108.6799     
     17     (1,21,8)             -5108.6810     
     18     (1,21,9)             -5108.6891     
 -----------------------------------------------




 HEAD WILL BE SAVED ON UNIT 1016 AT END OF TIME STEP    2, STRESS PERIOD    5


  VOLUME BUDGET FOR ENTIRE MODEL AT END OF TIME STEP    2, STRESS PERIOD   5
  ---------------------------------------------------------------------------------------------------

     CUMULATIVE VOLUME      L**3       RATES FOR THIS TIME STEP      L**3/T          PACKAGE NAME    
     ------------------                 ------------------------                     ----------------

           IN:                                      IN:
           ---                                      ---
              STO-SS =           0.0000                STO-SS =           0.0000     STORAGE                          
              STO-SY =           0.0000                STO-SY =           0.0000     STORAGE                          
                 WEL =           0.0000                   WEL =           0.0000     WEL-1                            
                RCHA =    43006613.8239                  RCHA =      513000.0000     RCH-1                            
                 CHD =           0.0000                   CHD =           0.0000     CHD-FROM-IBOUND                  

            TOTAL IN =    43006613.8239              TOTAL IN =      513000.0000

          OUT:                                     OUT:
          ----                                     ----
              STO-SS =    33618516.5572                STO-SS =      408564.1405     STORAGE                          
              STO-SY =     1033527.9303                STO-SY =       12479.4806     STORAGE                          
                 WEL =           0.0000                   WEL =           0.0000     WEL-1                            
                RCHA =           0.0000                  RCHA =           0.0000     RCH-1                            
                 CHD =     8354569.7222                   CHD =       91956.3793     CHD-FROM-IBOUND                  

           TOTAL OUT =    43006614.2098             TOTAL OUT =      513000.0005

            IN - OUT =          -0.3858              IN - OUT =      -4.8959E-04

 PERCENT DISCREPANCY =          -0.00     PERCENT DISCREPANCY =          -0.00




         TIME SUMMARY AT END OF TIME STEP    2 IN STRESS PERIOD    5
                    SECONDS     MINUTES      HOURS       DAYS        YEARS
                    -----------------------------------------------------------
   TIME STEP LENGTH 1.88520E+05  3142.0      52.367      2.1819     5.97382E-03
 STRESS PERIOD TIME 3.45619E+05  5760.3      96.005      4.0002     1.09520E-02
         TOTAL TIME 8.20802E+06 1.36800E+05  2280.0      95.000     0.26010    


end timestep


start timestep kper="5" kstp="3" mode="normal"

 UBDSV1 SAVING     FLOW-JA-FACE ON UNIT   1015 AT TIME STEP      3, STRESS PERIOD      5
 UBDSV06 SAVING              WEL IN MODEL MUMODEL          PACKAGE MUMODEL         CONNECTED TO MODEL MUMODEL          PACKAGE WEL-1            ON UNIT   1015 AT TIME STEP      3, STRESS PERIOD      5
 UBDSV06 SAVING             RCHA IN MODEL MUMODEL          PACKAGE MUMODEL         CONNECTED TO MODEL MUMODEL          PACKAGE RCH-1            ON UNIT   1015 AT TIME STEP      3, STRESS PERIOD      5

 WEL PACKAGE (WEL-1) FLOW RATES   PERIOD      5   STEP        3
 -----------------------------------------------
   NUMBER   CELLID                    RATE      
 -----------------------------------------------
     1      (1,5,5)               0.0000000     
     2      (1,11,5)              0.0000000     
     3      (1,5,5)               0.0000000     
 -----------------------------------------------




 CHD PACKAGE (CHD-FROM-IBOUND) FLOW RATES   PERIOD      5   STEP        3
 -----------------------------------------------
   NUMBER   CELLID                    RATE      
 -----------------------------------------------
     1      (1,1,1)              -5119.2357     
     2      (1,1,2)              -5119.2315     
     3      (1,1,3)              -5119.2318     
     4      (1,1,4)              -5119.2337     
     5      (1,1,5)              -5119.2355     
     6      (1,1,6)              -5119.2371     
     7      (1,1,7)              -5119.2389     
     8      (1,1,8)              -5119.2416     
     9      (1,1,9)              -5119.2444     
     10     (1,21,1)             -5119.2445     
     11     (1,21,2)             -5119.2400     
     12     (1,21,3)             -5119.2366     
     13     (1,21,4)             -5119.2345     
     14     (1,21,5)             -5119.2326     
     15     (1,21,6)             -5119.2301     
     16     (1,21,7)             -5119.2279     
     17     (1,21,8)             -5119.2290     
     18     (1,21,9)             -5119.2370     
 -----------------------------------------------




 HEAD WILL BE SAVED ON UNIT 1016 AT END OF TIME STEP    3, STRESS PERIOD    5


  VOLUME BUDGET FOR ENTIRE MODEL AT END OF TIME STEP    3, STRESS PERIOD   5
  ---------------------------------------------------------------------------------------------------

     CUMULATIVE VOLUME      L**3       RATES FOR THIS TIME STEP      L**3/T          PACKAGE NAME    
     ------------------                 ------------------------                     ----------------

           IN:                                      IN:
           ---                                      ---
              STO-SS =           0.0000                STO-SS =           0.0000     STORAGE                          
              STO-SY =           0.0000                STO-SY =           0.0000     STORAGE                          
                 WEL =           0.0000                   WEL =           0.0000     WEL-1                            
                RCHA =    44349815.5996                  RCHA =      513000.0000     RCH-1                            
                 CHD =           0.0000                   CHD =           0.0000     CHD-FROM-IBOUND                  

            TOTAL IN =    44349815.5996              TOTAL IN =      513000.0000

          OUT:                                     OUT:
          ----                                     ----
              STO-SS =    34687800.0777                STO-SS =      408384.2472     STORAGE                          
              STO-SY =     1066177.1894                STO-SY =       12469.5115     STORAGE                          
                 WEL =           0.0000                   WEL =           0.0000     WEL-1                            
                RCHA =           0.0000                  RCHA =           0.0000     RCH-1                            
                 CHD =     8595838.7205                   CHD =       92146.2422     CHD-FROM-IBOUND                  

           TOTAL OUT =    44349815.9876             TOTAL OUT =      513000.0008

            IN - OUT =          -0.3881              IN - OUT =      -8.4067E-04

 PERCENT DISCREPANCY =          -0.00     PERCENT DISCREPANCY =          -0.00




         TIME SUMMARY AT END OF TIME STEP    3 IN STRESS PERIOD    5
                    SECONDS     MINUTES      HOURS       DAYS        YEARS
                    -----------------------------------------------------------
   TIME STEP LENGTH 2.26223E+05  3770.4      62.840      2.6183     7.16859E-03
 STRESS PERIOD TIME 5.71843E+05  9530.7      158.85      6.6185     1.81206E-02
         TOTAL TIME 8.43424E+06 1.40571E+05  2342.8      97.619     0.26727    


end timestep


start timestep kper="5" kstp="4" mode="normal"

 UBDSV1 SAVING     FLOW-JA-FACE ON UNIT   1015 AT TIME STEP      4, STRESS PERIOD      5
 UBDSV06 SAVING              WEL IN MODEL MUMODEL          PACKAGE MUMODEL         CONNECTED TO MODEL MUMODEL          PACKAGE WEL-1            ON UNIT   1015 AT TIME STEP      4, STRESS PERIOD      5
 UBDSV06 SAVING             RCHA IN MODEL MUMODEL          PACKAGE MUMODEL         CONNECTED TO MODEL MUMODEL          PACKAGE RCH-1            ON UNIT   1015 AT TIME STEP      4, STRESS PERIOD      5

 WEL PACKAGE (WEL-1) FLOW RATES   PERIOD      5   STEP        4
 -----------------------------------------------
   NUMBER   CELLID                    RATE      
 -----------------------------------------------
     1      (1,5,5)               0.0000000     
     2      (1,11,5)              0.0000000     
     3      (1,5,5)               0.0000000     
 -----------------------------------------------




 CHD PACKAGE (CHD-FROM-IBOUND) FLOW RATES   PERIOD      5   STEP        4
 -----------------------------------------------
   NUMBER   CELLID                    RATE      
 -----------------------------------------------
     1      (1,1,1)              -5131.8302     
     2      (1,1,2)              -5131.8261     
     3      (1,1,3)              -5131.8264     
     4      (1,1,4)              -5131.8283     
     5      (1,1,5)              -5131.8300     
     6      (1,1,6)              -5131.8316     
     7      (1,1,7)              -5131.8335     
     8      (1,1,8)              -5131.8361     
     9      (1,1,9)              -5131.8389     
     10     (1,21,1)             -5131.8390     
     11     (1,21,2)             -5131.8345     
     12     (1,21,3)             -5131.8311     
     13     (1,21,4)             -5131.8291     
     14     (1,21,5)             -5131.8271     
     15     (1,21,6)             -5131.8247     
     16     (1,21,7)             -5131.8225     
     17     (1,21,8)             -5131.8236     
     18     (1,21,9)             -5131.8316     
 -----------------------------------------------




 HEAD WILL BE SAVED ON UNIT 1016 AT END OF TIME STEP    4, STRESS PERIOD    5


  VOLUME BUDGET FOR ENTIRE MODEL AT END OF TIME STEP    4, STRESS PERIOD   5
  ---------------------------------------------------------------------------------------------------

     CUMULATIVE VOLUME      L**3       RATES FOR THIS TIME STEP      L**3/T          PACKAGE NAME    
     ------------------                 ------------------------                     ----------------

           IN:                                      IN:
           ---                                      ---
              STO-SS =           0.0000                STO-SS =           0.0000     STORAGE                          
              STO-SY =           0.0000                STO-SY =           0.0000     STORAGE                          
                 WEL =           0.0000                   WEL =           0.0000     WEL-1                            
                RCHA =    45961657.7303                  RCHA =      513000.0000     RCH-1                            
                 CHD =           0.0000                   CHD =           0.0000     CHD-FROM-IBOUND                  

            TOTAL IN =    45961657.7303              TOTAL IN =      513000.0000

          OUT:                                     OUT:
          ----                                     ----
              STO-SS =    35970265.4059                STO-SS =      408169.4484     STORAGE                          
              STO-SY =     1105318.9019                STO-SY =       12457.6087     STORAGE                          
                 WEL =           0.0000                   WEL =           0.0000     WEL-1                            
                RCHA =           0.0000                  RCHA =           0.0000     RCH-1                            
                 CHD =     8886073.8151                   CHD =       92372.9444     CHD-FROM-IBOUND                  

           TOTAL OUT =    45961658.1229             TOTAL OUT =      513000.0014

            IN - OUT =          -0.3926              IN - OUT =      -1.4375E-03

 PERCENT DISCREPANCY =          -0.00     PERCENT DISCREPANCY =          -0.00




         TIME SUMMARY AT END OF TIME STEP    4 IN STRESS PERIOD    5
                    SECONDS     MINUTES      HOURS       DAYS        YEARS
                    -----------------------------------------------------------
   TIME STEP LENGTH 2.71468E+05  4524.5      75.408      3.1420     8.60231E-03
 STRESS PERIOD TIME 8.43311E+05  14055.      234.25      9.7605     2.67229E-02
         TOTAL TIME 8.70571E+06 1.45095E+05  2418.3      100.76     0.27587    


end timestep


start timestep kper="5" kstp="5" mode="normal"

 UBDSV1 SAVING     FLOW-JA-FACE ON UNIT   1015 AT TIME STEP      5, STRESS PERIOD      5
 UBDSV06 SAVING              WEL IN MODEL MUMODEL          PACKAGE MUMODEL         CONNECTED TO MODEL MUMODEL          PACKAGE WEL-1            ON UNIT   1015 AT TIME STEP      5, STRESS PERIOD      5
 UBDSV06 SAVING             RCHA IN MODEL MUMODEL          PACKAGE MUMODEL         CONNECTED TO MODEL MUMODEL          PACKAGE RCH-1            ON UNIT   1015 AT TIME STEP      5, STRESS PERIOD      5

 WEL PACKAGE (WEL-1) FLOW RATES   PERIOD      5   STEP        5
 -----------------------------------------------
   NUMBER   CELLID                    RATE      
 -----------------------------------------------
     1      (1,5,5)               0.0000000     
     2      (1,11,5)              0.0000000     
     3      (1,5,5)               0.0000000     
 -----------------------------------------------




 CHD PACKAGE (CHD-FROM-IBOUND) FLOW RATES   PERIOD      5   STEP        5
 -----------------------------------------------
   NUMBER   CELLID                    RATE      
 -----------------------------------------------
     1      (1,1,1)              -5146.8542     
     2      (1,1,2)              -5146.8502     
     3      (1,1,3)              -5146.8504     
     4      (1,1,4)              -5146.8523     
     5      (1,1,5)              -5146.8540     
     6      (1,1,6)              -5146.8556     
     7      (1,1,7)              -5146.8575     
     8      (1,1,8)              -5146.8601     
     9      (1,1,9)              -5146.8628     
     10     (1,21,1)             -5146.8629     
     11     (1,21,2)             -5146.8585     
     12     (1,21,3)             -5146.8551     
     13     (1,21,4)             -5146.8530     
     14     (1,21,5)             -5146.8511     
     15     (1,21,6)             -5146.8487     
     16     (1,21,7)             -5146.8466     
     17     (1,21,8)             -5146.8477     
     18     (1,21,9)             -5146.8556     
 -----------------------------------------------




 HEAD WILL BE SAVED ON UNIT 1016 AT END OF TIME STEP    5, STRESS PERIOD    5


  VOLUME BUDGET FOR ENTIRE MODEL AT END OF TIME STEP    5, STRESS PERIOD   5
  ---------------------------------------------------------------------------------------------------

     CUMULATIVE VOLUME      L**3       RATES FOR THIS TIME STEP      L**3/T          PACKAGE NAME    
     ------------------                 ------------------------                     ----------------

           IN:                                      IN:
           ---                                      ---
              STO-SS =           0.0000                STO-SS =           0.0000     STORAGE                          
              STO-SY =           0.0000                STO-SY =           0.0000     STORAGE                          
                 WEL =           0.0000                   WEL =           0.0000     WEL-1                            
                RCHA =    47895868.2873                  RCHA =      513000.0000     RCH-1                            
                 CHD =           0.0000                   CHD =           0.0000     CHD-FROM-IBOUND                  

            TOTAL IN =    47895868.2873              TOTAL IN =      513000.0000

          OUT:                                     OUT:
          ----                                     ----
              STO-SS =    37508257.7006                STO-SS =      407913.2152     STORAGE                          
              STO-SY =     1152235.4259                STO-SY =       12443.4110     STORAGE                          
                 WEL =           0.0000                   WEL =           0.0000     WEL-1                            
                RCHA =           0.0000                  RCHA =           0.0000     RCH-1                            
                 CHD =     9235375.5626                   CHD =       92643.3763     CHD-FROM-IBOUND                  

           TOTAL OUT =    47895868.6891             TOTAL OUT =      513000.0024

            IN - OUT =          -0.4018              IN - OUT =      -2.4488E-03

 PERCENT DISCREPANCY =          -0.00     PERCENT DISCREPANCY =          -0.00




         TIME SUMMARY AT END OF TIME STEP    5 IN STRESS PERIOD    5
                    SECONDS     MINUTES      HOURS       DAYS        YEARS
                    -----------------------------------------------------------
   TIME STEP LENGTH 3.25762E+05  5429.4      90.489      3.7704     1.03228E-02
 STRESS PERIOD TIME 1.16907E+06  19485.      324.74      13.531     3.70457E-02
         TOTAL TIME 9.03147E+06 1.50525E+05  2508.7      104.53     0.28619    


end timestep


start timestep kper="5" kstp="6" mode="normal"

 UBDSV1 SAVING     FLOW-JA-FACE ON UNIT   1015 AT TIME STEP      6, STRESS PERIOD      5
 UBDSV06 SAVING              WEL IN MODEL MUMODEL          PACKAGE MUMODEL         CONNECTED TO MODEL MUMODEL          PACKAGE WEL-1            ON UNIT   1015 AT TIME STEP      6, STRESS PERIOD      5
 UBDSV06 SAVING             RCHA IN MODEL MUMODEL          PACKAGE MUMODEL         CONNECTED TO MODEL MUMODEL          PACKAGE RCH-1            ON UNIT   1015 AT TIME STEP      6, STRESS PERIOD      5

 WEL PACKAGE (WEL-1) FLOW RATES   PERIOD      5   STEP        6
 -----------------------------------------------
   NUMBER   CELLID                    RATE      
 -----------------------------------------------
     1      (1,5,5)               0.0000000     
     2      (1,11,5)              0.0000000     
     3      (1,5,5)               0.0000000     
 -----------------------------------------------




 CHD PACKAGE (CHD-FROM-IBOUND) FLOW RATES   PERIOD      5   STEP        6
 -----------------------------------------------
   NUMBER   CELLID                    RATE      
 -----------------------------------------------
     1      (1,1,1)              -5164.7561     
     2      (1,1,2)              -5164.7521     
     3      (1,1,3)              -5164.7523     
     4      (1,1,4)              -5164.7542     
     5      (1,1,5)              -5164.7559     
     6      (1,1,6)              -5164.7575     
     7      (1,1,7)              -5164.7593     
     8      (1,1,8)              -5164.7620     
     9      (1,1,9)              -5164.7647     
     10     (1,21,1)             -5164.7647     
     11     (1,21,2)             -5164.7603     
     12     (1,21,3)             -5164.7570     
     13     (1,21,4)             -5164.7549     
     14     (1,21,5)             -5164.7530     
     15     (1,21,6)             -5164.7507     
     16     (1,21,7)             -5164.7486     
     17     (1,21,8)             -5164.7498     
     18     (1,21,9)             -5164.7575     
 -----------------------------------------------




 HEAD WILL BE SAVED ON UNIT 1016 AT END OF TIME STEP    6, STRESS PERIOD    5


  VOLUME BUDGET FOR ENTIRE MODEL AT END OF TIME STEP    6, STRESS PERIOD   5
  ---------------------------------------------------------------------------------------------------

     CUMULATIVE VOLUME      L**3       RATES FOR THIS TIME STEP      L**3/T          PACKAGE NAME    
     ------------------                 ------------------------                     ----------------

           IN:                                      IN:
           ---                                      ---
              STO-SS =           0.0000                STO-SS =           0.0000     STORAGE                          
              STO-SY =           0.0000                STO-SY =           0.0000     STORAGE                          
                 WEL =           0.0000                   WEL =           0.0000     WEL-1                            
                RCHA =    50216920.9556                  RCHA =      513000.0000     RCH-1                            
                 CHD =           0.0000                   CHD =           0.0000     CHD-FROM-IBOUND                  

            TOTAL IN =    50216920.9556              TOTAL IN =      513000.0000

          OUT:                                     OUT:
          ----                                     ----
              STO-SS =    39352467.0582                STO-SS =      407607.8985     STORAGE                          
              STO-SY =     1208458.7195                STO-SY =       12426.4951     STORAGE                          
                 WEL =           0.0000                   WEL =           0.0000     WEL-1                            
                RCHA =           0.0000                  RCHA =           0.0000     RCH-1                            
                 CHD =     9655995.5985                   CHD =       92965.6106     CHD-FROM-IBOUND                  

           TOTAL OUT =    50216921.3763             TOTAL OUT =      513000.0042

            IN - OUT =          -0.4206              IN - OUT =      -4.1645E-03

 PERCENT DISCREPANCY =          -0.00     PERCENT DISCREPANCY =          -0.00




         TIME SUMMARY AT END OF TIME STEP    6 IN STRESS PERIOD    5
                    SECONDS     MINUTES      HOURS       DAYS        YEARS
                    -----------------------------------------------------------
   TIME STEP LENGTH 3.90914E+05  6515.2      108.59      4.5245     1.23873E-02
 STRESS PERIOD TIME 1.55999E+06  26000.      433.33      18.055     4.94330E-02
         TOTAL TIME 9.42239E+06 1.57040E+05  2617.3      109.06     0.29858    


end timestep


start timestep kper="5" kstp="7" mode="normal"

 UBDSV1 SAVING     FLOW-JA-FACE ON UNIT   1015 AT TIME STEP      7, STRESS PERIOD      5
 UBDSV06 SAVING              WEL IN MODEL MUMODEL          PACKAGE MUMODEL         CONNECTED TO MODEL MUMODEL          PACKAGE WEL-1            ON UNIT   1015 AT TIME STEP      7, STRESS PERIOD      5
 UBDSV06 SAVING             RCHA IN MODEL MUMODEL          PACKAGE MUMODEL         CONNECTED TO MODEL MUMODEL          PACKAGE RCH-1            ON UNIT   1015 AT TIME STEP      7, STRESS PERIOD      5

 WEL PACKAGE (WEL-1) FLOW RATES   PERIOD      5   STEP        7
 -----------------------------------------------
   NUMBER   CELLID                    RATE      
 -----------------------------------------------
     1      (1,5,5)               0.0000000     
     2      (1,11,5)              0.0000000     
     3      (1,5,5)               0.0000000     
 -----------------------------------------------




 CHD PACKAGE (CHD-FROM-IBOUND) FLOW RATES   PERIOD      5   STEP        7
 -----------------------------------------------
   NUMBER   CELLID                    RATE      
 -----------------------------------------------
     1      (1,1,1)              -5186.0590     
     2      (1,1,2)              -5186.0551     
     3      (1,1,3)              -5186.0553     
     4      (1,1,4)              -5186.0571     
     5      (1,1,5)              -5186.0588     
     6      (1,1,6)              -5186.0604     
     7      (1,1,7)              -5186.0622     
     8      (1,1,8)              -5186.0648     
     9      (1,1,9)              -5186.0675     
     10     (1,21,1)             -5186.0674     
     11     (1,21,2)             -5186.0632     
     12     (1,21,3)             -5186.0598     
     13     (1,21,4)             -5186.0578     
     14     (1,21,5)             -5186.0559     
     15     (1,21,6)             -5186.0536     
     16     (1,21,7)             -5186.0516     
     17     (1,21,8)             -5186.0528     
     18     (1,21,9)             -5186.0603     
 -----------------------------------------------




 HEAD WILL BE SAVED ON UNIT 1016 AT END OF TIME STEP    7, STRESS PERIOD    5


  VOLUME BUDGET FOR ENTIRE MODEL AT END OF TIME STEP    7, STRESS PERIOD   5
  ---------------------------------------------------------------------------------------------------

     CUMULATIVE VOLUME      L**3       RATES FOR THIS TIME STEP      L**3/T          PACKAGE NAME    
     ------------------                 ------------------------                     ----------------

           IN:                                      IN:
           ---                                      ---
              STO-SS =           0.0000                STO-SS =           0.0000     STORAGE                          
              STO-SY =           0.0000                STO-SY =           0.0000     STORAGE                          
                 WEL =           0.0000                   WEL =           0.0000     WEL-1                            
                RCHA =    53002184.1576                  RCHA =      513000.0000     RCH-1                            
                 CHD =           0.0000                   CHD =           0.0000     CHD-FROM-IBOUND                  

            TOTAL IN =    53002184.1576              TOTAL IN =      513000.0000

          OUT:                                     OUT:
          ----                                     ----
              STO-SS =    41563545.6812                STO-SS =      407244.5767     STORAGE                          
              STO-SY =     1275817.3926                STO-SY =       12406.3677     STORAGE                          
                 WEL =           0.0000                   WEL =           0.0000     WEL-1                            
                RCHA =           0.0000                  RCHA =           0.0000     RCH-1                            
                 CHD =    10162821.5428                   CHD =       93349.0627     CHD-FROM-IBOUND                  

           TOTAL OUT =    53002184.6165             TOTAL OUT =      513000.0071

            IN - OUT =          -0.4589              IN - OUT =      -7.0520E-03

 PERCENT DISCREPANCY =          -0.00     PERCENT DISCREPANCY =          -0.00




         TIME SUMMARY AT END OF TIME STEP    7 IN STRESS PERIOD    5
                    SECONDS     MINUTES      HOURS       DAYS        YEARS
                    -----------------------------------------------------------
   TIME STEP LENGTH 4.69097E+05  7818.3      130.30      5.4294     1.48648E-02
 STRESS PERIOD TIME 2.02908E+06  33818.      563.63      23.485     6.42978E-02
         TOTAL TIME 9.89148E+06 1.64858E+05  2747.6      114.48     0.31344    


end timestep


start timestep kper="5" kstp="8" mode="normal"

 UBDSV1 SAVING     FLOW-JA-FACE ON UNIT   1015 AT TIME STEP      8, STRESS PERIOD      5
 UBDSV06 SAVING              WEL IN MODEL MUMODEL          PACKAGE MUMODEL         CONNECTED TO MODEL MUMODEL          PACKAGE WEL-1            ON UNIT   1015 AT TIME STEP      8, STRESS PERIOD      5
 UBDSV06 SAVING             RCHA IN MODEL MUMODEL          PACKAGE MUMODEL         CONNECTED TO MODEL MUMODEL          PACKAGE RCH-1            ON UNIT   1015 AT TIME STEP      8, STRESS PERIOD      5

 WEL PACKAGE (WEL-1) FLOW RATES   PERIOD      5   STEP        8
 -----------------------------------------------
   NUMBER   CELLID                    RATE      
 -----------------------------------------------
     1      (1,5,5)               0.0000000     
     2      (1,11,5)              0.0000000     
     3      (1,5,5)               0.0000000     
 -----------------------------------------------




 CHD PACKAGE (CHD-FROM-IBOUND) FLOW RATES   PERIOD      5   STEP        8
 -----------------------------------------------
   NUMBER   CELLID                    RATE      
 -----------------------------------------------
     1      (1,1,1)              -5211.3698     
     2      (1,1,2)              -5211.3660     
     3      (1,1,3)              -5211.3661     
     4      (1,1,4)              -5211.3678     
     5      (1,1,5)              -5211.3696     
     6      (1,1,6)              -5211.3711     
     7      (1,1,7)              -5211.3729     
     8      (1,1,8)              -5211.3755     
     9      (1,1,9)              -5211.3782     
     10     (1,21,1)             -5211.3780     
     11     (1,21,2)             -5211.3738     
     12     (1,21,3)             -5211.3706     
     13     (1,21,4)             -5211.3686     
     14     (1,21,5)             -5211.3667     
     15     (1,21,6)             -5211.3644     
     16     (1,21,7)             -5211.3625     
     17     (1,21,8)             -5211.3638     
     18     (1,21,9)             -5211.3711     
 -----------------------------------------------




 HEAD WILL BE SAVED ON UNIT 1016 AT END OF TIME STEP    8, STRESS PERIOD    5


  VOLUME BUDGET FOR ENTIRE MODEL AT END OF TIME STEP    8, STRESS PERIOD   5
  ---------------------------------------------------------------------------------------------------

     CUMULATIVE VOLUME      L**3       RATES FOR THIS TIME STEP      L**3/T          PACKAGE NAME    
     ------------------                 ------------------------                     ----------------

           IN:                                      IN:
           ---                                      ---
              STO-SS =           0.0000                STO-SS =           0.0000     STORAGE                          
              STO-SY =           0.0000                STO-SY =           0.0000     STORAGE                          
                 WEL =           0.0000                   WEL =           0.0000     WEL-1                            
                RCHA =    56344500.0000                  RCHA =      513000.0000     RCH-1                            
                 CHD =           0.0000                   CHD =           0.0000     CHD-FROM-IBOUND                  

            TOTAL IN =    56344500.0000              TOTAL IN =      513000.0000

          OUT:                                     OUT:
          ----                                     ----
              STO-SS =    44214027.5473                STO-SS =      406812.8990     STORAGE                          
              STO-SY =     1356492.0130                STO-SY =       12382.4564     STORAGE                          
                 WEL =           0.0000                   WEL =           0.0000     WEL-1                            
                RCHA =           0.0000                  RCHA =           0.0000     RCH-1                            
                 CHD =    10773980.9762                   CHD =       93804.6565     CHD-FROM-IBOUND                  

           TOTAL OUT =    56344500.5365             TOTAL OUT =      513000.0119

            IN - OUT =          -0.5365              IN - OUT =      -1.1901E-02

 PERCENT DISCREPANCY =          -0.00     PERCENT DISCREPANCY =          -0.00




         TIME SUMMARY AT END OF TIME STEP    8 IN STRESS PERIOD    5
                    SECONDS     MINUTES      HOURS       DAYS        YEARS
                    -----------------------------------------------------------
   TIME STEP LENGTH 5.62916E+05  9381.9      156.37      6.5152     1.78377E-02
 STRESS PERIOD TIME 2.59200E+06  43200.      720.00      30.000     8.21355E-02
         TOTAL TIME 1.04544E+07 1.74240E+05  2904.0      121.00     0.33128    


end timestep


start timestep kper="6" kstp="1" mode="normal"


 OUTPUT CONTROL FOR STRESS PERIOD 6 IS REPEATED USING SETTINGS FROM A PREVIOUS STRESS PERIOD.


 STRESS PERIOD 6 IS TRANSIENT


 REUSING WELS FROM LAST STRESS PERIOD

 REUSING CHDS FROM LAST STRESS PERIOD
 UBDSV1 SAVING     FLOW-JA-FACE ON UNIT   1015 AT TIME STEP      1, STRESS PERIOD      6
 UBDSV06 SAVING              WEL IN MODEL MUMODEL          PACKAGE MUMODEL         CONNECTED TO MODEL MUMODEL          PACKAGE WEL-1            ON UNIT   1015 AT TIME STEP      1, STRESS PERIOD      6
 UBDSV06 SAVING             RCHA IN MODEL MUMODEL          PACKAGE MUMODEL         CONNECTED TO MODEL MUMODEL          PACKAGE RCH-1            ON UNIT   1015 AT TIME STEP      1, STRESS PERIOD      6

 WEL PACKAGE (WEL-1) FLOW RATES   PERIOD      6   STEP        1
 -----------------------------------------------
   NUMBER   CELLID                    RATE      
 -----------------------------------------------
     1      (1,5,5)               0.0000000     
     2      (1,11,5)              0.0000000     
     3      (1,5,5)               0.0000000     
 -----------------------------------------------




 CHD PACKAGE (CHD-FROM-IBOUND) FLOW RATES   PERIOD      6   STEP        1
 -----------------------------------------------
   NUMBER   CELLID                    RATE      
 -----------------------------------------------
     1      (1,1,1)              -5211.6597     
     2      (1,1,2)              -5211.6559     
     3      (1,1,3)              -5211.6560     
     4      (1,1,4)              -5211.6577     
     5      (1,1,5)              -5211.6595     
     6      (1,1,6)              -5211.6610     
     7      (1,1,7)              -5211.6628     
     8      (1,1,8)              -5211.6654     
     9      (1,1,9)              -5211.6681     
     10     (1,21,1)             -5211.6679     
     11     (1,21,2)             -5211.6637     
     12     (1,21,3)             -5211.6604     
     13     (1,21,4)             -5211.6585     
     14     (1,21,5)             -5211.6566     
     15     (1,21,6)             -5211.6543     
     16     (1,21,7)             -5211.6524     
     17     (1,21,8)             -5211.6537     
     18     (1,21,9)             -5211.6610     
 -----------------------------------------------




 HEAD WILL BE SAVED ON UNIT 1016 AT END OF TIME STEP    1, STRESS PERIOD    6


  VOLUME BUDGET FOR ENTIRE MODEL AT END OF TIME STEP    1, STRESS PERIOD   6
  ---------------------------------------------------------------------------------------------------

     CUMULATIVE VOLUME      L**3       RATES FOR THIS TIME STEP      L**3/T          PACKAGE NAME    
     ------------------                 ------------------------                     ----------------

           IN:                                      IN:
           ---                                      ---
              STO-SS =           0.0000                STO-SS =           0.0000     STORAGE                          
              STO-SY =           0.0000                STO-SY =           0.0000     STORAGE                          
                 WEL =           0.0000                   WEL =           0.0000     WEL-1                            
                RCHA =    56665790.5482                  RCHA =      171000.0000     RCH-1                            
                 CHD =           0.0000                   CHD =           0.0000     CHD-FROM-IBOUND                  

            TOTAL IN =    56665790.5482              TOTAL IN =      171000.0000

          OUT:                                     OUT:
          ----                                     ----
              STO-SS =    44354887.8763                STO-SS =       74969.8875     STORAGE                          
              STO-SY =     1360663.6006                STO-SY =        2220.2380     STORAGE                          
                 WEL =           0.0000                   WEL =           0.0000     WEL-1                            
                RCHA =           0.0000                  RCHA =           0.0000     RCH-1                            
                 CHD =    10950239.6078                   CHD =       93809.8745     CHD-FROM-IBOUND                  

           TOTAL OUT =    56665791.0847             TOTAL OUT =      171000.0000

            IN - OUT =          -0.5365              IN - OUT =      -7.6783E-06

 PERCENT DISCREPANCY =          -0.00     PERCENT DISCREPANCY =          -0.00




         TIME SUMMARY AT END OF TIME STEP    1 IN STRESS PERIOD    6
                    SECONDS     MINUTES      HOURS       DAYS        YEARS
                    -----------------------------------------------------------
   TIME STEP LENGTH 1.62336E+05  2705.6      45.093      1.8789     5.14413E-03
 STRESS PERIOD TIME 1.62336E+05  2705.6      45.093      1.8789     5.14413E-03
         TOTAL TIME 1.06167E+07 1.76946E+05  2949.1      122.88     0.33642    


end timestep


start timestep kper="6" kstp="2" mode="normal"

 UBDSV1 SAVING     FLOW-JA-FACE ON UNIT   1015 AT TIME STEP      2, STRESS PERIOD      6
 UBDSV06 SAVING              WEL IN MODEL MUMODEL          PACKAGE MUMODEL         CONNECTED TO MODEL MUMODEL          PACKAGE WEL-1            ON UNIT   1015 AT TIME STEP      2, STRESS PERIOD      6
 UBDSV06 SAVING             RCHA IN MODEL MUMODEL          PACKAGE MUMODEL         CONNECTED TO MODEL MUMODEL          PACKAGE RCH-1            ON UNIT   1015 AT TIME STEP      2, STRESS PERIOD      6

 WEL PACKAGE (WEL-1) FLOW RATES   PERIOD      6   STEP        2
 -----------------------------------------------
   NUMBER   CELLID                    RATE      
 -----------------------------------------------
     1      (1,5,5)               0.0000000     
     2      (1,11,5)              0.0000000     
     3      (1,5,5)               0.0000000     
 -----------------------------------------------




 CHD PACKAGE (CHD-FROM-IBOUND) FLOW RATES   PERIOD      6   STEP        2
 -----------------------------------------------
   NUMBER   CELLID                    RATE      
 -----------------------------------------------
     1      (1,1,1)              -5212.0121     
     2      (1,1,2)              -5212.0084     
     3      (1,1,3)              -5212.0085     
     4      (1,1,4)              -5212.0102     
     5      (1,1,5)              -5212.0119     
     6      (1,1,6)              -5212.0134     
     7      (1,1,7)              -5212.0153     
     8      (1,1,8)              -5212.0178     
     9      (1,1,9)              -5212.0205     
     10     (1,21,1)             -5212.0203     
     11     (1,21,2)             -5212.0161     
     12     (1,21,3)             -5212.0129     
     13     (1,21,4)             -5212.0109     
     14     (1,21,5)             -5212.0091     
     15     (1,21,6)             -5212.0068     
     16     (1,21,7)             -5212.0049     
     17     (1,21,8)             -5212.0062     
     18     (1,21,9)             -5212.0134     
 -----------------------------------------------




 HEAD WILL BE SAVED ON UNIT 1016 AT END OF TIME STEP    2, STRESS PERIOD    6


  VOLUME BUDGET FOR ENTIRE MODEL AT END OF TIME STEP    2, STRESS PERIOD   6
  ---------------------------------------------------------------------------------------------------

     CUMULATIVE VOLUME      L**3       RATES FOR THIS TIME STEP      L**3/T          PACKAGE NAME    
     ------------------                 ------------------------                     ----------------

           IN:                                      IN:
           ---                                      ---
              STO-SS =           0.0000                STO-SS =           0.0000     STORAGE                          
              STO-SY =           0.0000                STO-SY =           0.0000     STORAGE                          
                 WEL =           0.0000                   WEL =           0.0000     WEL-1                            
                RCHA =    57051339.2060                  RCHA =      171000.0000     RCH-1                            
                 CHD =           0.0000                   CHD =           0.0000     CHD-FROM-IBOUND                  

            TOTAL IN =    57051339.2060              TOTAL IN =      171000.0000

          OUT:                                     OUT:
          ----                                     ----
              STO-SS =    44523906.3814                STO-SS =       74963.7271     STORAGE                          
              STO-SY =     1365669.0913                STO-SY =        2220.0542     STORAGE                          
                 WEL =           0.0000                   WEL =           0.0000     WEL-1                            
                RCHA =           0.0000                  RCHA =           0.0000     RCH-1                            
                 CHD =    11161764.2699                   CHD =       93816.2187     CHD-FROM-IBOUND                  

           TOTAL OUT =    57051339.7425             TOTAL OUT =      171000.0000

            IN - OUT =          -0.5365              IN - OUT =      -2.2664E-05

 PERCENT DISCREPANCY =          -0.00     PERCENT DISCREPANCY =          -0.00




         TIME SUMMARY AT END OF TIME STEP    2 IN STRESS PERIOD    6
                    SECONDS     MINUTES      HOURS       DAYS        YEARS
                    -----------------------------------------------------------
   TIME STEP LENGTH 1.94804E+05  3246.7      54.112      2.2547     6.17295E-03
 STRESS PERIOD TIME 3.57140E+05  5952.3      99.206      4.1336     1.13171E-02
         TOTAL TIME 1.08115E+07 1.80192E+05  3003.2      125.13     0.34260    


end timestep


start timestep kper="6" kstp="3" mode="normal"

 UBDSV1 SAVING     FLOW-JA-FACE ON UNIT   1015 AT TIME STEP      3, STRESS PERIOD      6
 UBDSV06 SAVING              WEL IN MODEL MUMODEL          PACKAGE MUMODEL         CONNECTED TO MODEL MUMODEL          PACKAGE WEL-1            ON UNIT   1015 AT TIME STEP      3, STRESS PERIOD      6
 UBDSV06 SAVING             RCHA IN MODEL MUMODEL          PACKAGE MUMODEL         CONNECTED TO MODEL MUMODEL          PACKAGE RCH-1            ON UNIT   1015 AT TIME STEP      3, STRESS PERIOD      6

 WEL PACKAGE (WEL-1) FLOW RATES   PERIOD      6   STEP        3
 -----------------------------------------------
   NUMBER   CELLID                    RATE      
 -----------------------------------------------
     1      (1,5,5)               0.0000000     
     2      (1,11,5)              0.0000000     
     3      (1,5,5)               0.0000000     
 -----------------------------------------------




 CHD PACKAGE (CHD-FROM-IBOUND) FLOW RATES   PERIOD      6   STEP        3
 -----------------------------------------------
   NUMBER   CELLID                    RATE      
 -----------------------------------------------
     1      (1,1,1)              -5212.4426     
     2      (1,1,2)              -5212.4389     
     3      (1,1,3)              -5212.4390     
     4      (1,1,4)              -5212.4407     
     5      (1,1,5)              -5212.4424     
     6      (1,1,6)              -5212.4439     
     7      (1,1,7)              -5212.4457     
     8      (1,1,8)              -5212.4483     
     9      (1,1,9)              -5212.4510     
     10     (1,21,1)             -5212.4507     
     11     (1,21,2)             -5212.4466     
     12     (1,21,3)             -5212.4434     
     13     (1,21,4)             -5212.4414     
     14     (1,21,5)             -5212.4396     
     15     (1,21,6)             -5212.4373     
     16     (1,21,7)             -5212.4354     
     17     (1,21,8)             -5212.4368     
     18     (1,21,9)             -5212.4439     
 -----------------------------------------------




 HEAD WILL BE SAVED ON UNIT 1016 AT END OF TIME STEP    3, STRESS PERIOD    6


  VOLUME BUDGET FOR ENTIRE MODEL AT END OF TIME STEP    3, STRESS PERIOD   6
  ---------------------------------------------------------------------------------------------------

     CUMULATIVE VOLUME      L**3       RATES FOR THIS TIME STEP      L**3/T          PACKAGE NAME    
     ------------------                 ------------------------                     ----------------

           IN:                                      IN:
           ---                                      ---
              STO-SS =           0.0000                STO-SS =           0.0000     STORAGE                          
              STO-SY =           0.0000                STO-SY =           0.0000     STORAGE                          
                 WEL =           0.0000                   WEL =           0.0000     WEL-1                            
                RCHA =    57513997.5954                  RCHA =      171000.0000     RCH-1                            
                 CHD =           0.0000                   CHD =           0.0000     CHD-FROM-IBOUND                  

            TOTAL IN =    57513997.5954              TOTAL IN =      171000.0000

          OUT:                                     OUT:
          ----                                     ----
              STO-SS =    44726708.2352                STO-SS =       74956.2048     STORAGE                          
              STO-SY =     1371675.0670                STO-SY =        2219.8276     STORAGE                          
                 WEL =           0.0000                   WEL =           0.0000     WEL-1                            
                RCHA =           0.0000                  RCHA =           0.0000     RCH-1                            
                 CHD =    11415614.8298                   CHD =       93823.9676     CHD-FROM-IBOUND                  

           TOTAL OUT =    57513998.1320             TOTAL OUT =      171000.0000

            IN - OUT =          -0.5366              IN - OUT =      -3.6656E-05

 PERCENT DISCREPANCY =          -0.00     PERCENT DISCREPANCY =          -0.00




         TIME SUMMARY AT END OF TIME STEP    3 IN STRESS PERIOD    6
                    SECONDS     MINUTES      HOURS       DAYS        YEARS
                    -----------------------------------------------------------
   TIME STEP LENGTH 2.33764E+05  3896.1      64.935      2.7056     7.40754E-03
 STRESS PERIOD TIME 5.90904E+05  9848.4      164.14      6.8392     1.87246E-02
         TOTAL TIME 1.10453E+07 1.84088E+05  3068.1      127.84     0.35000    


end timestep


start timestep kper="6" kstp="4" mode="normal"

 UBDSV1 SAVING     FLOW-JA-FACE ON UNIT   1015 AT TIME STEP      4, STRESS PERIOD      6
 UBDSV06 SAVING              WEL IN MODEL MUMODEL          PACKAGE MUMODEL         CONNECTED TO MODEL MUMODEL          PACKAGE WEL-1            ON UNIT   1015 AT TIME STEP      4, STRESS PERIOD      6
 UBDSV06 SAVING             RCHA IN MODEL MUMODEL          PACKAGE MUMODEL         CONNECTED TO MODEL MUMODEL          PACKAGE RCH-1            ON UNIT   1015 AT TIME STEP      4, STRESS PERIOD      6

 WEL PACKAGE (WEL-1) FLOW RATES   PERIOD      6   STEP        4
 -----------------------------------------------
   NUMBER   CELLID                    RATE      
 -----------------------------------------------
     1      (1,5,5)               0.0000000     
     2      (1,11,5)              0.0000000     
     3      (1,5,5)               0.0000000     
 -----------------------------------------------




 CHD PACKAGE (CHD-FROM-IBOUND) FLOW RATES   PERIOD      6   STEP        4
 -----------------------------------------------
   NUMBER   CELLID                    RATE      
 -----------------------------------------------
     1      (1,1,1)              -5212.9699     
     2      (1,1,2)              -5212.9662     
     3      (1,1,3)              -5212.9663     
     4      (1,1,4)              -5212.9680     
     5      (1,1,5)              -5212.9697     
     6      (1,1,6)              -5212.9712     
     7      (1,1,7)              -5212.9730     
     8      (1,1,8)              -5212.9755     
     9      (1,1,9)              -5212.9782     
     10     (1,21,1)             -5212.9779     
     11     (1,21,2)             -5212.9738     
     12     (1,21,3)             -5212.9706     
     13     (1,21,4)             -5212.9686     
     14     (1,21,5)             -5212.9668     
     15     (1,21,6)             -5212.9646     
     16     (1,21,7)             -5212.9627     
     17     (1,21,8)             -5212.9641     
     18     (1,21,9)             -5212.9712     
 -----------------------------------------------




 HEAD WILL BE SAVED ON UNIT 1016 AT END OF TIME STEP    4, STRESS PERIOD    6


  VOLUME BUDGET FOR ENTIRE MODEL AT END OF TIME STEP    4, STRESS PERIOD   6
  ---------------------------------------------------------------------------------------------------

     CUMULATIVE VOLUME      L**3       RATES FOR THIS TIME STEP      L**3/T          PACKAGE NAME    
     ------------------                 ------------------------                     ----------------

           IN:                                      IN:
           ---                                      ---
              STO-SS =           0.0000                STO-SS =           0.0000     STORAGE                          
              STO-SY =           0.0000                STO-SY =           0.0000     STORAGE                          
                 WEL =           0.0000                   WEL =           0.0000     WEL-1                            
                RCHA =    58069187.6627                  RCHA =      171000.0000     RCH-1                            
                 CHD =           0.0000                   CHD =           0.0000     CHD-FROM-IBOUND                  

            TOTAL IN =    58069187.6627              TOTAL IN =      171000.0000

          OUT:                                     OUT:
          ----                                     ----
              STO-SS =    44970040.5571                STO-SS =       74946.9947     STORAGE                          
              STO-SY =     1378881.3276                STO-SY =        2219.5472     STORAGE                          
                 WEL =           0.0000                   WEL =           0.0000     WEL-1                            
                RCHA =           0.0000                  RCHA =           0.0000     RCH-1                            
                 CHD =    11720266.3148                   CHD =       93833.4581     CHD-FROM-IBOUND                  

           TOTAL OUT =    58069188.1995             TOTAL OUT =      171000.0001

            IN - OUT =          -0.5368              IN - OUT =      -5.8196E-05

 PERCENT DISCREPANCY =          -0.00     PERCENT DISCREPANCY =          -0.00




         TIME SUMMARY AT END OF TIME STEP    4 IN STRESS PERIOD    6
                    SECONDS     MINUTES      HOURS       DAYS        YEARS
                    -----------------------------------------------------------
   TIME STEP LENGTH 2.80517E+05  4675.3      77.921      3.2467     8.88905E-03
 STRESS PERIOD TIME 8.71421E+05  14524.      242.06      10.086     2.76137E-02
         TOTAL TIME 1.13258E+07 1.88764E+05  3146.1      131.09     0.35889    


end timestep


start timestep kper="6" kstp="5" mode="normal"

 UBDSV1 SAVING     FLOW-JA-FACE ON UNIT   1015 AT TIME STEP      5, STRESS PERIOD      6
 UBDSV06 SAVING              WEL IN MODEL MUMODEL          PACKAGE MUMODEL         CONNECTED TO MODEL MUMODEL          PACKAGE WEL-1            ON UNIT   1015 AT TIME STEP      5, STRESS PERIOD      6
 UBDSV06 SAVING             RCHA IN MODEL MUMODEL          PACKAGE MUMODEL         CONNECTED TO MODEL MUMODEL          PACKAGE RCH-1            ON UNIT   1015 AT TIME STEP      5, STRESS PERIOD      6

 WEL PACKAGE (WEL-1) FLOW RATES   PERIOD      6   STEP        5
 -----------------------------------------------
   NUMBER   CELLID                    RATE      
 -----------------------------------------------
     1      (1,5,5)               0.0000000     
     2      (1,11,5)              0.0000000     
     3      (1,5,5)               0.0000000     
 -----------------------------------------------




 CHD PACKAGE (CHD-FROM-IBOUND) FLOW RATES   PERIOD      6   STEP        5
 -----------------------------------------------
   NUMBER   CELLID                    RATE      
 -----------------------------------------------
     1      (1,1,1)              -5213.6176     
     2      (1,1,2)              -5213.6140     
     3      (1,1,3)              -5213.6140     
     4      (1,1,4)              -5213.6157     
     5      (1,1,5)              -5213.6173     
     6      (1,1,6)              -5213.6189     
     7      (1,1,7)              -5213.6207     
     8      (1,1,8)              -5213.6232     
     9      (1,1,9)              -5213.6258     
     10     (1,21,1)             -5213.6255     
     11     (1,21,2)             -5213.6215     
     12     (1,21,3)             -5213.6183     
     13     (1,21,4)             -5213.6163     
     14     (1,21,5)             -5213.6145     
     15     (1,21,6)             -5213.6123     
     16     (1,21,7)             -5213.6105     
     17     (1,21,8)             -5213.6119     
     18     (1,21,9)             -5213.6189     
 -----------------------------------------------




 HEAD WILL BE SAVED ON UNIT 1016 AT END OF TIME STEP    5, STRESS PERIOD    6


  VOLUME BUDGET FOR ENTIRE MODEL AT END OF TIME STEP    5, STRESS PERIOD   6
  ---------------------------------------------------------------------------------------------------

     CUMULATIVE VOLUME      L**3       RATES FOR THIS TIME STEP      L**3/T          PACKAGE NAME    
     ------------------                 ------------------------                     ----------------

           IN:                                      IN:
           ---                                      ---
              STO-SS =           0.0000                STO-SS =           0.0000     STORAGE                          
              STO-SY =           0.0000                STO-SY =           0.0000     STORAGE                          
                 WEL =           0.0000                   WEL =           0.0000     WEL-1                            
                RCHA =    58735415.7434                  RCHA =      171000.0000     RCH-1                            
                 CHD =           0.0000                   CHD =           0.0000     CHD-FROM-IBOUND                  

            TOTAL IN =    58735415.7434              TOTAL IN =      171000.0000

          OUT:                                     OUT:
          ----                                     ----
              STO-SS =    45261995.2781                STO-SS =       74935.6845     STORAGE                          
              STO-SY =     1387527.4827                STO-SY =        2219.1988     STORAGE                          
                 WEL =           0.0000                   WEL =           0.0000     WEL-1                            
                RCHA =           0.0000                  RCHA =           0.0000     RCH-1                            
                 CHD =    12085893.5198                   CHD =       93845.1168     CHD-FROM-IBOUND                  

           TOTAL OUT =    58735416.2806             TOTAL OUT =      171000.0001

            IN - OUT =          -0.5372              IN - OUT =      -1.0058E-04

 PERCENT DISCREPANCY =          -0.00     PERCENT DISCREPANCY =          -0.00




         TIME SUMMARY AT END OF TIME STEP    5 IN STRESS PERIOD    6
                    SECONDS     MINUTES      HOURS       DAYS        YEARS
                    -----------------------------------------------------------
   TIME STEP LENGTH 3.36621E+05  5610.3      93.506      3.8961     1.06669E-02
 STRESS PERIOD TIME 1.20804E+06  20134.      335.57      13.982     3.82805E-02
         TOTAL TIME 1.16624E+07 1.94374E+05  3239.6      134.98     0.36956    


end timestep


start timestep kper="6" kstp="6" mode="normal"

 UBDSV1 SAVING     FLOW-JA-FACE ON UNIT   1015 AT TIME STEP      6, STRESS PERIOD      6
 UBDSV06 SAVING              WEL IN MODEL MUMODEL          PACKAGE MUMODEL         CONNECTED TO MODEL MUMODEL          PACKAGE WEL-1            ON UNIT   1015 AT TIME STEP      6, STRESS PERIOD      6
 UBDSV06 SAVING             RCHA IN MODEL MUMODEL          PACKAGE MUMODEL         CONNECTED TO MODEL MUMODEL          PACKAGE RCH-1            ON UNIT   1015 AT TIME STEP      6, STRESS PERIOD      6

 WEL PACKAGE (WEL-1) FLOW RATES   PERIOD      6   STEP        6
 -----------------------------------------------
   NUMBER   CELLID                    RATE      
 -----------------------------------------------
     1      (1,5,5)               0.0000000     
     2      (1,11,5)              0.0000000     
     3      (1,5,5)               0.0000000     
 -----------------------------------------------




 CHD PACKAGE (CHD-FROM-IBOUND) FLOW RATES   PERIOD      6   STEP        6
 -----------------------------------------------
   NUMBER   CELLID                    RATE      
 -----------------------------------------------
     1      (1,1,1)              -5214.4158     
     2      (1,1,2)              -5214.4123     
     3      (1,1,3)              -5214.4123     
     4      (1,1,4)              -5214.4139     
     5      (1,1,5)              -5214.4156     
     6      (1,1,6)              -5214.4171     
     7      (1,1,7)              -5214.4189     
     8      (1,1,8)              -5214.4214     
     9      (1,1,9)              -5214.4240     
     10     (1,21,1)             -5214.4237     
     11     (1,21,2)             -5214.4197     
     12     (1,21,3)             -5214.4165     
     13     (1,21,4)             -5214.4146     
     14     (1,21,5)             -5214.4128     
     15     (1,21,6)             -5214.4106     
     16     (1,21,7)             -5214.4088     
     17     (1,21,8)             -5214.4103     
     18     (1,21,9)             -5214.4171     
 -----------------------------------------------




 HEAD WILL BE SAVED ON UNIT 1016 AT END OF TIME STEP    6, STRESS PERIOD    6


  VOLUME BUDGET FOR ENTIRE MODEL AT END OF TIME STEP    6, STRESS PERIOD   6
  ---------------------------------------------------------------------------------------------------

     CUMULATIVE VOLUME      L**3       RATES FOR THIS TIME STEP      L**3/T          PACKAGE NAME    
     ------------------                 ------------------------                     ----------------

           IN:                                      IN:
           ---                                      ---
              STO-SS =           0.0000                STO-SS =           0.0000     STORAGE                          
              STO-SY =           0.0000                STO-SY =           0.0000     STORAGE                          
                 WEL =           0.0000                   WEL =           0.0000     WEL-1                            
                RCHA =    59534889.4403                  RCHA =      171000.0000     RCH-1                            
                 CHD =           0.0000                   CHD =           0.0000     CHD-FROM-IBOUND                  

            TOTAL IN =    59534889.4403              TOTAL IN =      171000.0000

          OUT:                                     OUT:
          ----                                     ----
              STO-SS =    45612275.7992                STO-SS =       74921.7508     STORAGE                          
              STO-SY =     1397900.8359                STO-SY =        2218.7639     STORAGE                          
                 WEL =           0.0000                   WEL =           0.0000     WEL-1                            
                RCHA =           0.0000                  RCHA =           0.0000     RCH-1                            
                 CHD =    12524713.3432                   CHD =       93859.4854     CHD-FROM-IBOUND                  

           TOTAL OUT =    59534889.9783             TOTAL OUT =      171000.0002

            IN - OUT =          -0.5380              IN - OUT =      -1.7504E-04

 PERCENT DISCREPANCY =          -0.00     PERCENT DISCREPANCY =          -0.00




         TIME SUMMARY AT END OF TIME STEP    6 IN STRESS PERIOD    6
                    SECONDS     MINUTES      HOURS       DAYS        YEARS
                    -----------------------------------------------------------
   TIME STEP LENGTH 4.03945E+05  6732.4      112.21      4.6753     1.28002E-02
 STRESS PERIOD TIME 1.61199E+06  26866.      447.77      18.657     5.10808E-02
         TOTAL TIME 1.20664E+07 2.01106E+05  3351.8      139.66     0.38236    


end timestep


start timestep kper="6" kstp="7" mode="normal"

 UBDSV1 SAVING     FLOW-JA-FACE ON UNIT   1015 AT TIME STEP      7, STRESS PERIOD      6
 UBDSV06 SAVING              WEL IN MODEL MUMODEL          PACKAGE MUMODEL         CONNECTED TO MODEL MUMODEL          PACKAGE WEL-1            ON UNIT   1015 AT TIME STEP      7, STRESS PERIOD      6
 UBDSV06 SAVING             RCHA IN MODEL MUMODEL          PACKAGE MUMODEL         CONNECTED TO MODEL MUMODEL          PACKAGE RCH-1            ON UNIT   1015 AT TIME STEP      7, STRESS PERIOD      6

 WEL PACKAGE (WEL-1) FLOW RATES   PERIOD      6   STEP        7
 -----------------------------------------------
   NUMBER   CELLID                    RATE      
 -----------------------------------------------
     1      (1,5,5)               0.0000000     
     2      (1,11,5)              0.0000000     
     3      (1,5,5)               0.0000000     
 -----------------------------------------------




 CHD PACKAGE (CHD-FROM-IBOUND) FLOW RATES   PERIOD      6   STEP        7
 -----------------------------------------------
   NUMBER   CELLID                    RATE      
 -----------------------------------------------
     1      (1,1,1)              -5215.4030     
     2      (1,1,2)              -5215.3995     
     3      (1,1,3)              -5215.3995     
     4      (1,1,4)              -5215.4011     
     5      (1,1,5)              -5215.4028     
     6      (1,1,6)              -5215.4043     
     7      (1,1,7)              -5215.4061     
     8      (1,1,8)              -5215.4086     
     9      (1,1,9)              -5215.4111     
     10     (1,21,1)             -5215.4107     
     11     (1,21,2)             -5215.4068     
     12     (1,21,3)             -5215.4037     
     13     (1,21,4)             -5215.4017     
     14     (1,21,5)             -5215.4000     
     15     (1,21,6)             -5215.3978     
     16     (1,21,7)             -5215.3961     
     17     (1,21,8)             -5215.3976     
     18     (1,21,9)             -5215.4043     
 -----------------------------------------------




 HEAD WILL BE SAVED ON UNIT 1016 AT END OF TIME STEP    7, STRESS PERIOD    6


  VOLUME BUDGET FOR ENTIRE MODEL AT END OF TIME STEP    7, STRESS PERIOD   6
  ---------------------------------------------------------------------------------------------------

     CUMULATIVE VOLUME      L**3       RATES FOR THIS TIME STEP      L**3/T          PACKAGE NAME    
     ------------------                 ------------------------                     ----------------

           IN:                                      IN:
           ---                                      ---
              STO-SS =           0.0000                STO-SS =           0.0000     STORAGE                          
              STO-SY =           0.0000                STO-SY =           0.0000     STORAGE                          
                 WEL =           0.0000                   WEL =           0.0000     WEL-1                            
                RCHA =    60494257.8765                  RCHA =      171000.0000     RCH-1                            
                 CHD =           0.0000                   CHD =           0.0000     CHD-FROM-IBOUND                  

            TOTAL IN =    60494257.8765              TOTAL IN =      171000.0000

          OUT:                                     OUT:
          ----                                     ----
              STO-SS =    46032515.7918                STO-SS =       74904.5268     STORAGE                          
              STO-SY =     1410345.8012                STO-SY =        2218.2188     STORAGE                          
                 WEL =           0.0000                   WEL =           0.0000     WEL-1                            
                RCHA =           0.0000                  RCHA =           0.0000     RCH-1                            
                 CHD =    13051396.8232                   CHD =       93877.2547     CHD-FROM-IBOUND                  

           TOTAL OUT =    60494258.4162             TOTAL OUT =      171000.0003

            IN - OUT =          -0.5397              IN - OUT =      -3.0055E-04

 PERCENT DISCREPANCY =          -0.00     PERCENT DISCREPANCY =          -0.00




         TIME SUMMARY AT END OF TIME STEP    7 IN STRESS PERIOD    6
                    SECONDS     MINUTES      HOURS       DAYS        YEARS
                    -----------------------------------------------------------
   TIME STEP LENGTH 4.84734E+05  8078.9      134.65      5.6103     1.53603E-02
 STRESS PERIOD TIME 2.09672E+06  34945.      582.42      24.268     6.64410E-02
         TOTAL TIME 1.25511E+07 2.09185E+05  3486.4      145.27     0.39772    


end timestep


start timestep kper="6" kstp="8" mode="normal"

 UBDSV1 SAVING     FLOW-JA-FACE ON UNIT   1015 AT TIME STEP      8, STRESS PERIOD      6
 UBDSV06 SAVING              WEL IN MODEL MUMODEL          PACKAGE MUMODEL         CONNECTED TO MODEL MUMODEL          PACKAGE WEL-1            ON UNIT   1015 AT TIME STEP      8, STRESS PERIOD      6
 UBDSV06 SAVING             RCHA IN MODEL MUMODEL          PACKAGE MUMODEL         CONNECTED TO MODEL MUMODEL          PACKAGE RCH-1            ON UNIT   1015 AT TIME STEP      8, STRESS PERIOD      6

 WEL PACKAGE (WEL-1) FLOW RATES   PERIOD      6   STEP        8
 -----------------------------------------------
   NUMBER   CELLID                    RATE      
 -----------------------------------------------
     1      (1,5,5)               0.0000000     
     2      (1,11,5)              0.0000000     
     3      (1,5,5)               0.0000000     
 -----------------------------------------------




 CHD PACKAGE (CHD-FROM-IBOUND) FLOW RATES   PERIOD      6   STEP        8
 -----------------------------------------------
   NUMBER   CELLID                    RATE      
 -----------------------------------------------
     1      (1,1,1)              -5216.6281     
     2      (1,1,2)              -5216.6248     
     3      (1,1,3)              -5216.6247     
     4      (1,1,4)              -5216.6263     
     5      (1,1,5)              -5216.6279     
     6      (1,1,6)              -5216.6294     
     7      (1,1,7)              -5216.6312     
     8      (1,1,8)              -5216.6337     
     9      (1,1,9)              -5216.6362     
     10     (1,21,1)             -5216.6357     
     11     (1,21,2)             -5216.6319     
     12     (1,21,3)             -5216.6288     
     13     (1,21,4)             -5216.6269     
     14     (1,21,5)             -5216.6251     
     15     (1,21,6)             -5216.6230     
     16     (1,21,7)             -5216.6214     
     17     (1,21,8)             -5216.6229     
     18     (1,21,9)             -5216.6294     
 -----------------------------------------------




 HEAD WILL BE SAVED ON UNIT 1016 AT END OF TIME STEP    8, STRESS PERIOD    6


  VOLUME BUDGET FOR ENTIRE MODEL AT END OF TIME STEP    8, STRESS PERIOD   6
  ---------------------------------------------------------------------------------------------------

     CUMULATIVE VOLUME      L**3       RATES FOR THIS TIME STEP      L**3/T          PACKAGE NAME    
     ------------------                 ------------------------                     ----------------

           IN:                                      IN:
           ---                                      ---
              STO-SS =           0.0000                STO-SS =           0.0000     STORAGE                          
              STO-SY =           0.0000                STO-SY =           0.0000     STORAGE                          
                 WEL =           0.0000                   WEL =           0.0000     WEL-1                            
                RCHA =    61645500.0000                  RCHA =      171000.0000     RCH-1                            
                 CHD =           0.0000                   CHD =           0.0000     CHD-FROM-IBOUND                  

            TOTAL IN =    61645500.0000              TOTAL IN =      171000.0000

          OUT:                                     OUT:
          ----                                     ----
              STO-SS =    46536659.9393                STO-SS =       74883.1609     STORAGE                          
              STO-SY =     1425275.1378                STO-SY =        2217.5323     STORAGE                          
                 WEL =           0.0000                   WEL =           0.0000     WEL-1                            
                RCHA =           0.0000                  RCHA =           0.0000     RCH-1                            
                 CHD =    13683565.4661                   CHD =       93899.3073     CHD-FROM-IBOUND                  

           TOTAL OUT =    61645500.5432             TOTAL OUT =      171000.0005

            IN - OUT =          -0.5432              IN - OUT =      -5.1115E-04

 PERCENT DISCREPANCY =          -0.00     PERCENT DISCREPANCY =          -0.00




         TIME SUMMARY AT END OF TIME STEP    8 IN STRESS PERIOD    6
                    SECONDS     MINUTES      HOURS       DAYS        YEARS
                    -----------------------------------------------------------
   TIME STEP LENGTH 5.81680E+05  9694.7      161.58      6.7324     1.84323E-02
 STRESS PERIOD TIME 2.67840E+06  44640.      744.00      31.000     8.48734E-02
         TOTAL TIME 1.31328E+07 2.18880E+05  3648.0      152.00     0.41615    


end timestep


start timestep kper="7" kstp="1" mode="normal"


 OUTPUT CONTROL FOR STRESS PERIOD 7 IS REPEATED USING SETTINGS FROM A PREVIOUS STRESS PERIOD.


 STRESS PERIOD 7 IS TRANSIENT


 REUSING WELS FROM LAST STRESS PERIOD

 REUSING CHDS FROM LAST STRESS PERIOD
 UBDSV1 SAVING     FLOW-JA-FACE ON UNIT   1015 AT TIME STEP      1, STRESS PERIOD      7
 UBDSV06 SAVING              WEL IN MODEL MUMODEL          PACKAGE MUMODEL         CONNECTED TO MODEL MUMODEL          PACKAGE WEL-1            ON UNIT   1015 AT TIME STEP      1, STRESS PERIOD      7
 UBDSV06 SAVING             RCHA IN MODEL MUMODEL          PACKAGE MUMODEL         CONNECTED TO MODEL MUMODEL          PACKAGE RCH-1            ON UNIT   1015 AT TIME STEP      1, STRESS PERIOD      7

 WEL PACKAGE (WEL-1) FLOW RATES   PERIOD      7   STEP        1
 -----------------------------------------------
   NUMBER   CELLID                    RATE      
 -----------------------------------------------
     1      (1,5,5)               0.0000000     
     2      (1,11,5)              0.0000000     
     3      (1,5,5)               0.0000000     
 -----------------------------------------------




 CHD PACKAGE (CHD-FROM-IBOUND) FLOW RATES   PERIOD      7   STEP        1
 -----------------------------------------------
   NUMBER   CELLID                    RATE      
 -----------------------------------------------
     1      (1,1,1)              -5215.2713     
     2      (1,1,2)              -5215.2679     
     3      (1,1,3)              -5215.2679     
     4      (1,1,4)              -5215.2694     
     5      (1,1,5)              -5215.2711     
     6      (1,1,6)              -5215.2725     
     7      (1,1,7)              -5215.2743     
     8      (1,1,8)              -5215.2768     
     9      (1,1,9)              -5215.2793     
     10     (1,21,1)             -5215.2788     
     11     (1,21,2)             -5215.2750     
     12     (1,21,3)             -5215.2719     
     13     (1,21,4)             -5215.2700     
     14     (1,21,5)             -5215.2683     
     15     (1,21,6)             -5215.2662     
     16     (1,21,7)             -5215.2646     
     17     (1,21,8)             -5215.2661     
     18     (1,21,9)             -5215.2726     
 -----------------------------------------------




 HEAD WILL BE SAVED ON UNIT 1016 AT END OF TIME STEP    1, STRESS PERIOD    7


  VOLUME BUDGET FOR ENTIRE MODEL AT END OF TIME STEP    1, STRESS PERIOD   7
  ---------------------------------------------------------------------------------------------------

     CUMULATIVE VOLUME      L**3       RATES FOR THIS TIME STEP      L**3/T          PACKAGE NAME    
     ------------------                 ------------------------                     ----------------

           IN:                                      IN:
           ---                                      ---
              STO-SS =       14646.0796                STO-SS =        8054.8970     STORAGE                          
              STO-SY =         581.8272                STO-SY =         319.9872     STORAGE                          
                 WEL =           0.0000                   WEL =           0.0000     WEL-1                            
                RCHA =    61800963.1685                  RCHA =       85500.0000     RCH-1                            
                 CHD =           0.0000                   CHD =           0.0000     CHD-FROM-IBOUND                  

            TOTAL IN =    61816191.0752              TOTAL IN =       93874.8841

          OUT:                                     OUT:
          ----                                     ----
              STO-SS =    46536659.9393                STO-SS =           0.0000     STORAGE                          
              STO-SY =     1425275.1378                STO-SY =           0.0000     STORAGE                          
                 WEL =           0.0000                   WEL =           0.0000     WEL-1                            
                RCHA =           0.0000                  RCHA =           0.0000     RCH-1                            
                 CHD =    13854256.5412                   CHD =       93874.8841     CHD-FROM-IBOUND                  

           TOTAL OUT =    61816191.6183             TOTAL OUT =       93874.8841

            IN - OUT =          -0.5431              IN - OUT =       4.4265E-05

 PERCENT DISCREPANCY =          -0.00     PERCENT DISCREPANCY =           0.00




         TIME SUMMARY AT END OF TIME STEP    1 IN STRESS PERIOD    7
                    SECONDS     MINUTES      HOURS       DAYS        YEARS
                    -----------------------------------------------------------
   TIME STEP LENGTH 1.57100E+05  2618.3      43.639      1.8183     4.97819E-03
 STRESS PERIOD TIME 1.57100E+05  2618.3      43.639      1.8183     4.97819E-03
         TOTAL TIME 1.32899E+07 2.21498E+05  3691.6      153.82     0.42113    


end timestep


start timestep kper="7" kstp="2" mode="normal"

 UBDSV1 SAVING     FLOW-JA-FACE ON UNIT   1015 AT TIME STEP      2, STRESS PERIOD      7
 UBDSV06 SAVING              WEL IN MODEL MUMODEL          PACKAGE MUMODEL         CONNECTED TO MODEL MUMODEL          PACKAGE WEL-1            ON UNIT   1015 AT TIME STEP      2, STRESS PERIOD      7
 UBDSV06 SAVING             RCHA IN MODEL MUMODEL          PACKAGE MUMODEL         CONNECTED TO MODEL MUMODEL          PACKAGE RCH-1            ON UNIT   1015 AT TIME STEP      2, STRESS PERIOD      7

 WEL PACKAGE (WEL-1) FLOW RATES   PERIOD      7   STEP        2
 -----------------------------------------------
   NUMBER   CELLID                    RATE      
 -----------------------------------------------
     1      (1,5,5)               0.0000000     
     2      (1,11,5)              0.0000000     
     3      (1,5,5)               0.0000000     
 -----------------------------------------------




 CHD PACKAGE (CHD-FROM-IBOUND) FLOW RATES   PERIOD      7   STEP        2
 -----------------------------------------------
   NUMBER   CELLID                    RATE      
 -----------------------------------------------
     1      (1,1,1)              -5213.6550     
     2      (1,1,2)              -5213.6517     
     3      (1,1,3)              -5213.6516     
     4      (1,1,4)              -5213.6531     
     5      (1,1,5)              -5213.6548     
     6      (1,1,6)              -5213.6562     
     7      (1,1,7)              -5213.6580     
     8      (1,1,8)              -5213.6605     
     9      (1,1,9)              -5213.6630     
     10     (1,21,1)             -5213.6625     
     11     (1,21,2)             -5213.6587     
     12     (1,21,3)             -5213.6556     
     13     (1,21,4)             -5213.6537     
     14     (1,21,5)             -5213.6520     
     15     (1,21,6)             -5213.6499     
     16     (1,21,7)             -5213.6483     
     17     (1,21,8)             -5213.6499     
     18     (1,21,9)             -5213.6563     
 -----------------------------------------------




 HEAD WILL BE SAVED ON UNIT 1016 AT END OF TIME STEP    2, STRESS PERIOD    7


  VOLUME BUDGET FOR ENTIRE MODEL AT END OF TIME STEP    2, STRESS PERIOD   7
  ---------------------------------------------------------------------------------------------------

     CUMULATIVE VOLUME      L**3       RATES FOR THIS TIME STEP      L**3/T          PACKAGE NAME    
     ------------------                 ------------------------                     ----------------

           IN:                                      IN:
           ---                                      ---
              STO-SS =       32160.6017                STO-SS =        8027.0440     STORAGE                          
              STO-SY =        1277.3130                STO-SY =         318.7467     STORAGE                          
                 WEL =           0.0000                   WEL =           0.0000     WEL-1                            
                RCHA =    61987518.9707                  RCHA =       85500.0000     RCH-1                            
                 CHD =           0.0000                   CHD =           0.0000     CHD-FROM-IBOUND                  

            TOTAL IN =    62020956.8853              TOTAL IN =       93845.7907

          OUT:                                     OUT:
          ----                                     ----
              STO-SS =    46536659.9393                STO-SS =           0.0000     STORAGE                          
              STO-SY =     1425275.1378                STO-SY =           0.0000     STORAGE                          
                 WEL =           0.0000                   WEL =           0.0000     WEL-1                            
                RCHA =           0.0000                  RCHA =           0.0000     RCH-1                            
                 CHD =    14059022.3512                   CHD =       93845.7906     CHD-FROM-IBOUND                  

           TOTAL OUT =    62020957.4282             TOTAL OUT =       93845.7906

            IN - OUT =          -0.5429              IN - OUT =       7.1075E-05

 PERCENT DISCREPANCY =          -0.00     PERCENT DISCREPANCY =           0.00




         TIME SUMMARY AT END OF TIME STEP    2 IN STRESS PERIOD    7
                    SECONDS     MINUTES      HOURS       DAYS        YEARS
                    -----------------------------------------------------------
   TIME STEP LENGTH 1.88520E+05  3142.0      52.367      2.1819     5.97382E-03
 STRESS PERIOD TIME 3.45619E+05  5760.3      96.005      4.0002     1.09520E-02
         TOTAL TIME 1.34784E+07 2.24640E+05  3744.0      156.00     0.42711    


end timestep


start timestep kper="7" kstp="3" mode="normal"

 UBDSV1 SAVING     FLOW-JA-FACE ON UNIT   1015 AT TIME STEP      3, STRESS PERIOD      7
 UBDSV06 SAVING              WEL IN MODEL MUMODEL          PACKAGE MUMODEL         CONNECTED TO MODEL MUMODEL          PACKAGE WEL-1            ON UNIT   1015 AT TIME STEP      3, STRESS PERIOD      7
 UBDSV06 SAVING             RCHA IN MODEL MUMODEL          PACKAGE MUMODEL         CONNECTED TO MODEL MUMODEL          PACKAGE RCH-1            ON UNIT   1015 AT TIME STEP      3, STRESS PERIOD      7

 WEL PACKAGE (WEL-1) FLOW RATES   PERIOD      7   STEP        3
 -----------------------------------------------
   NUMBER   CELLID                    RATE      
 -----------------------------------------------
     1      (1,5,5)               0.0000000     
     2      (1,11,5)              0.0000000     
     3      (1,5,5)               0.0000000     
 -----------------------------------------------




 CHD PACKAGE (CHD-FROM-IBOUND) FLOW RATES   PERIOD      7   STEP        3
 -----------------------------------------------
   NUMBER   CELLID                    RATE      
 -----------------------------------------------
     1      (1,1,1)              -5211.7328     
     2      (1,1,2)              -5211.7296     
     3      (1,1,3)              -5211.7295     
     4      (1,1,4)              -5211.7310     
     5      (1,1,5)              -5211.7326     
     6      (1,1,6)              -5211.7341     
     7      (1,1,7)              -5211.7359     
     8      (1,1,8)              -5211.7383     
     9      (1,1,9)              -5211.7408     
     10     (1,21,1)             -5211.7403     
     11     (1,21,2)             -5211.7365     
     12     (1,21,3)             -5211.7335     
     13     (1,21,4)             -5211.7316     
     14     (1,21,5)             -5211.7298     
     15     (1,21,6)             -5211.7278     
     16     (1,21,7)             -5211.7262     
     17     (1,21,8)             -5211.7278     
     18     (1,21,9)             -5211.7342     
 -----------------------------------------------




 HEAD WILL BE SAVED ON UNIT 1016 AT END OF TIME STEP    3, STRESS PERIOD    7


  VOLUME BUDGET FOR ENTIRE MODEL AT END OF TIME STEP    3, STRESS PERIOD   7
  ---------------------------------------------------------------------------------------------------

     CUMULATIVE VOLUME      L**3       RATES FOR THIS TIME STEP      L**3/T          PACKAGE NAME    
     ------------------                 ------------------------                     ----------------

           IN:                                      IN:
           ---                                      ---
              STO-SS =       53091.3012                STO-SS =        7993.9210     STORAGE                          
              STO-SY =        2108.0335                STO-SY =         317.2715     STORAGE                          
                 WEL =           0.0000                   WEL =           0.0000     WEL-1                            
                RCHA =    62211385.9333                  RCHA =       85500.0000     RCH-1                            
                 CHD =           0.0000                   CHD =           0.0000     CHD-FROM-IBOUND                  

            TOTAL IN =    62266585.2680              TOTAL IN =       93811.1925

          OUT:                                     OUT:
          ----                                     ----
              STO-SS =    46536659.9393                STO-SS =           0.0000     STORAGE                          
              STO-SY =     1425275.1378                STO-SY =           0.0000     STORAGE                          
                 WEL =           0.0000                   WEL =           0.0000     WEL-1                            
                RCHA =           0.0000                  RCHA =           0.0000     RCH-1                            
                 CHD =    14304650.7335                   CHD =       93811.1924     CHD-FROM-IBOUND                  

           TOTAL OUT =    62266585.8106             TOTAL OUT =       93811.1924

            IN - OUT =          -0.5426              IN - OUT =       1.1671E-04

 PERCENT DISCREPANCY =          -0.00     PERCENT DISCREPANCY =           0.00




         TIME SUMMARY AT END OF TIME STEP    3 IN STRESS PERIOD    7
                    SECONDS     MINUTES      HOURS       DAYS        YEARS
                    -----------------------------------------------------------
   TIME STEP LENGTH 2.26223E+05  3770.4      62.840      2.6183     7.16859E-03
 STRESS PERIOD TIME 5.71843E+05  9530.7      158.85      6.6185     1.81206E-02
         TOTAL TIME 1.37046E+07 2.28411E+05  3806.8      158.62     0.43427    


end timestep


start timestep kper="7" kstp="4" mode="normal"

 UBDSV1 SAVING     FLOW-JA-FACE ON UNIT   1015 AT TIME STEP      4, STRESS PERIOD      7
 UBDSV06 SAVING              WEL IN MODEL MUMODEL          PACKAGE MUMODEL         CONNECTED TO MODEL MUMODEL          PACKAGE WEL-1            ON UNIT   1015 AT TIME STEP      4, STRESS PERIOD      7
 UBDSV06 SAVING             RCHA IN MODEL MUMODEL          PACKAGE MUMODEL         CONNECTED TO MODEL MUMODEL          PACKAGE RCH-1            ON UNIT   1015 AT TIME STEP      4, STRESS PERIOD      7

 WEL PACKAGE (WEL-1) FLOW RATES   PERIOD      7   STEP        4
 -----------------------------------------------
   NUMBER   CELLID                    RATE      
 -----------------------------------------------
     1      (1,5,5)               0.0000000     
     2      (1,11,5)              0.0000000     
     3      (1,5,5)               0.0000000     
 -----------------------------------------------




 CHD PACKAGE (CHD-FROM-IBOUND) FLOW RATES   PERIOD      7   STEP        4
 -----------------------------------------------
   NUMBER   CELLID                    RATE      
 -----------------------------------------------
     1      (1,1,1)              -5209.4511     
     2      (1,1,2)              -5209.4478     
     3      (1,1,3)              -5209.4477     
     4      (1,1,4)              -5209.4492     
     5      (1,1,5)              -5209.4508     
     6      (1,1,6)              -5209.4523     
     7      (1,1,7)              -5209.4541     
     8      (1,1,8)              -5209.4565     
     9      (1,1,9)              -5209.4590     
     10     (1,21,1)             -5209.4585     
     11     (1,21,2)             -5209.4547     
     12     (1,21,3)             -5209.4517     
     13     (1,21,4)             -5209.4498     
     14     (1,21,5)             -5209.4481     
     15     (1,21,6)             -5209.4460     
     16     (1,21,7)             -5209.4445     
     17     (1,21,8)             -5209.4461     
     18     (1,21,9)             -5209.4524     
 -----------------------------------------------




 HEAD WILL BE SAVED ON UNIT 1016 AT END OF TIME STEP    4, STRESS PERIOD    7


  VOLUME BUDGET FOR ENTIRE MODEL AT END OF TIME STEP    4, STRESS PERIOD   7
  ---------------------------------------------------------------------------------------------------

     CUMULATIVE VOLUME      L**3       RATES FOR THIS TIME STEP      L**3/T          PACKAGE NAME    
     ------------------                 ------------------------                     ----------------

           IN:                                      IN:
           ---                                      ---
              STO-SS =       78084.5944                STO-SS =        7954.6000     STORAGE                          
              STO-SY =        3099.3962                STO-SY =         315.5204     STORAGE                          
                 WEL =           0.0000                   WEL =           0.0000     WEL-1                            
                RCHA =    62480026.2884                  RCHA =       85500.0000     RCH-1                            
                 CHD =           0.0000                   CHD =           0.0000     CHD-FROM-IBOUND                  

            TOTAL IN =    62561210.2790              TOTAL IN =       93770.1204

          OUT:                                     OUT:
          ----                                     ----
              STO-SS =    46536659.9393                STO-SS =           0.0000     STORAGE                          
              STO-SY =     1425275.1378                STO-SY =           0.0000     STORAGE                          
                 WEL =           0.0000                   WEL =           0.0000     WEL-1                            
                RCHA =           0.0000                  RCHA =           0.0000     RCH-1                            
                 CHD =    14599275.7440                   CHD =       93770.1202     CHD-FROM-IBOUND                  

           TOTAL OUT =    62561210.8210             TOTAL OUT =       93770.1202

            IN - OUT =          -0.5420              IN - OUT =       1.9572E-04

 PERCENT DISCREPANCY =          -0.00     PERCENT DISCREPANCY =           0.00




         TIME SUMMARY AT END OF TIME STEP    4 IN STRESS PERIOD    7
                    SECONDS     MINUTES      HOURS       DAYS        YEARS
                    -----------------------------------------------------------
   TIME STEP LENGTH 2.71468E+05  4524.5      75.408      3.1420     8.60231E-03
 STRESS PERIOD TIME 8.43311E+05  14055.      234.25      9.7605     2.67229E-02
         TOTAL TIME 1.39761E+07 2.32935E+05  3882.3      161.76     0.44288    


end timestep


start timestep kper="7" kstp="5" mode="normal"

 UBDSV1 SAVING     FLOW-JA-FACE ON UNIT   1015 AT TIME STEP      5, STRESS PERIOD      7
 UBDSV06 SAVING              WEL IN MODEL MUMODEL          PACKAGE MUMODEL         CONNECTED TO MODEL MUMODEL          PACKAGE WEL-1            ON UNIT   1015 AT TIME STEP      5, STRESS PERIOD      7
 UBDSV06 SAVING             RCHA IN MODEL MUMODEL          PACKAGE MUMODEL         CONNECTED TO MODEL MUMODEL          PACKAGE RCH-1            ON UNIT   1015 AT TIME STEP      5, STRESS PERIOD      7

 WEL PACKAGE (WEL-1) FLOW RATES   PERIOD      7   STEP        5
 -----------------------------------------------
   NUMBER   CELLID                    RATE      
 -----------------------------------------------
     1      (1,5,5)               0.0000000     
     2      (1,11,5)              0.0000000     
     3      (1,5,5)               0.0000000     
 -----------------------------------------------




 CHD PACKAGE (CHD-FROM-IBOUND) FLOW RATES   PERIOD      7   STEP        5
 -----------------------------------------------
   NUMBER   CELLID                    RATE      
 -----------------------------------------------
     1      (1,1,1)              -5206.7480     
     2      (1,1,2)              -5206.7448     
     3      (1,1,3)              -5206.7447     
     4      (1,1,4)              -5206.7462     
     5      (1,1,5)              -5206.7478     
     6      (1,1,6)              -5206.7492     
     7      (1,1,7)              -5206.7510     
     8      (1,1,8)              -5206.7534     
     9      (1,1,9)              -5206.7559     
     10     (1,21,1)             -5206.7553     
     11     (1,21,2)             -5206.7516     
     12     (1,21,3)             -5206.7486     
     13     (1,21,4)             -5206.7467     
     14     (1,21,5)             -5206.7450     
     15     (1,21,6)             -5206.7429     
     16     (1,21,7)             -5206.7415     
     17     (1,21,8)             -5206.7431     
     18     (1,21,9)             -5206.7493     
 -----------------------------------------------




 HEAD WILL BE SAVED ON UNIT 1016 AT END OF TIME STEP    5, STRESS PERIOD    7


  VOLUME BUDGET FOR ENTIRE MODEL AT END OF TIME STEP    5, STRESS PERIOD   7
  ---------------------------------------------------------------------------------------------------

     CUMULATIVE VOLUME      L**3       RATES FOR THIS TIME STEP      L**3/T          PACKAGE NAME    
     ------------------                 ------------------------                     ----------------

           IN:                                      IN:
           ---                                      ---
              STO-SS =      107900.9178                STO-SS =        7908.0190     STORAGE                          
              STO-SY =        4281.2108                STO-SY =         313.4462     STORAGE                          
                 WEL =           0.0000                   WEL =           0.0000     WEL-1                            
                RCHA =    62802394.7145                  RCHA =       85500.0000     RCH-1                            
                 CHD =           0.0000                   CHD =           0.0000     CHD-FROM-IBOUND                  

            TOTAL IN =    62914576.8431              TOTAL IN =       93721.4652

          OUT:                                     OUT:
          ----                                     ----
              STO-SS =    46536659.9393                STO-SS =           0.0000     STORAGE                          
              STO-SY =     1425275.1378                STO-SY =           0.0000     STORAGE                          
                 WEL =           0.0000                   WEL =           0.0000     WEL-1                            
                RCHA =           0.0000                  RCHA =           0.0000     RCH-1                            
                 CHD =    14952642.3068                   CHD =       93721.4649     CHD-FROM-IBOUND                  

           TOTAL OUT =    62914577.3838             TOTAL OUT =       93721.4649

            IN - OUT =          -0.5407              IN - OUT =       3.3274E-04

 PERCENT DISCREPANCY =          -0.00     PERCENT DISCREPANCY =           0.00




         TIME SUMMARY AT END OF TIME STEP    5 IN STRESS PERIOD    7
                    SECONDS     MINUTES      HOURS       DAYS        YEARS
                    -----------------------------------------------------------
   TIME STEP LENGTH 3.25762E+05  5429.4      90.489      3.7704     1.03228E-02
 STRESS PERIOD TIME 1.16907E+06  19485.      324.74      13.531     3.70457E-02
         TOTAL TIME 1.43019E+07 2.38365E+05  3972.7      165.53     0.45320    


end timestep


start timestep kper="7" kstp="6" mode="normal"

 UBDSV1 SAVING     FLOW-JA-FACE ON UNIT   1015 AT TIME STEP      6, STRESS PERIOD      7
 UBDSV06 SAVING              WEL IN MODEL MUMODEL          PACKAGE MUMODEL         CONNECTED TO MODEL MUMODEL          PACKAGE WEL-1            ON UNIT   1015 AT TIME STEP      6, STRESS PERIOD      7
 UBDSV06 SAVING             RCHA IN MODEL MUMODEL          PACKAGE MUMODEL         CONNECTED TO MODEL MUMODEL          PACKAGE RCH-1            ON UNIT   1015 AT TIME STEP      6, STRESS PERIOD      7

 WEL PACKAGE (WEL-1) FLOW RATES   PERIOD      7   STEP        6
 -----------------------------------------------
   NUMBER   CELLID                    RATE      
 -----------------------------------------------
     1      (1,5,5)               0.0000000     
     2      (1,11,5)              0.0000000     
     3      (1,5,5)               0.0000000     
 -----------------------------------------------




 CHD PACKAGE (CHD-FROM-IBOUND) FLOW RATES   PERIOD      7   STEP        6
 -----------------------------------------------
   NUMBER   CELLID                    RATE      
 -----------------------------------------------
     1      (1,1,1)              -5203.5538     
     2      (1,1,2)              -5203.5507     
     3      (1,1,3)              -5203.5505     
     4      (1,1,4)              -5203.5520     
     5      (1,1,5)              -5203.5536     
     6      (1,1,6)              -5203.5550     
     7      (1,1,7)              -5203.5568     
     8      (1,1,8)              -5203.5592     
     9      (1,1,9)              -5203.5617     
     10     (1,21,1)             -5203.5610     
     11     (1,21,2)             -5203.5574     
     12     (1,21,3)             -5203.5544     
     13     (1,21,4)             -5203.5525     
     14     (1,21,5)             -5203.5508     
     15     (1,21,6)             -5203.5488     
     16     (1,21,7)             -5203.5473     
     17     (1,21,8)             -5203.5490     
     18     (1,21,9)             -5203.5551     
 -----------------------------------------------




 HEAD WILL BE SAVED ON UNIT 1016 AT END OF TIME STEP    6, STRESS PERIOD    7


  VOLUME BUDGET FOR ENTIRE MODEL AT END OF TIME STEP    6, STRESS PERIOD   7
  ---------------------------------------------------------------------------------------------------

     CUMULATIVE VOLUME      L**3       RATES FOR THIS TIME STEP      L**3/T          PACKAGE NAME    
     ------------------                 ------------------------                     ----------------

           IN:                                      IN:
           ---                                      ---
              STO-SS =      143431.4595                STO-SS =        7852.9747     STORAGE                          
              STO-SY =        5688.2993                STO-SY =         310.9953     STORAGE                          
                 WEL =           0.0000                   WEL =           0.0000     WEL-1                            
                RCHA =    63189236.8259                  RCHA =       85500.0000     RCH-1                            
                 CHD =           0.0000                   CHD =           0.0000     CHD-FROM-IBOUND                  

            TOTAL IN =    63338356.5847              TOTAL IN =       93663.9700

          OUT:                                     OUT:
          ----                                     ----
              STO-SS =    46536659.9393                STO-SS =           0.0000     STORAGE                          
              STO-SY =     1425275.1378                STO-SY =           0.0000     STORAGE                          
                 WEL =           0.0000                   WEL =           0.0000     WEL-1                            
                RCHA =           0.0000                  RCHA =           0.0000     RCH-1                            
                 CHD =    15376422.0459                   CHD =       93663.9694     CHD-FROM-IBOUND                  

           TOTAL OUT =    63338357.1230             TOTAL OUT =       93663.9694

            IN - OUT =          -0.5382              IN - OUT =       5.5557E-04

 PERCENT DISCREPANCY =          -0.00     PERCENT DISCREPANCY =           0.00




         TIME SUMMARY AT END OF TIME STEP    6 IN STRESS PERIOD    7
                    SECONDS     MINUTES      HOURS       DAYS        YEARS
                    -----------------------------------------------------------
   TIME STEP LENGTH 3.90914E+05  6515.2      108.59      4.5245     1.23873E-02
 STRESS PERIOD TIME 1.55999E+06  26000.      433.33      18.055     4.94330E-02
         TOTAL TIME 1.46928E+07 2.44880E+05  4081.3      170.06     0.46559    


end timestep


start timestep kper="7" kstp="7" mode="normal"

 UBDSV1 SAVING     FLOW-JA-FACE ON UNIT   1015 AT TIME STEP      7, STRESS PERIOD      7
 UBDSV06 SAVING              WEL IN MODEL MUMODEL          PACKAGE MUMODEL         CONNECTED TO MODEL MUMODEL          PACKAGE WEL-1            ON UNIT   1015 AT TIME STEP      7, STRESS PERIOD      7
 UBDSV06 SAVING             RCHA IN MODEL MUMODEL          PACKAGE MUMODEL         CONNECTED TO MODEL MUMODEL          PACKAGE RCH-1            ON UNIT   1015 AT TIME STEP      7, STRESS PERIOD      7

 WEL PACKAGE (WEL-1) FLOW RATES   PERIOD      7   STEP        7
 -----------------------------------------------
   NUMBER   CELLID                    RATE      
 -----------------------------------------------
     1      (1,5,5)               0.0000000     
     2      (1,11,5)              0.0000000     
     3      (1,5,5)               0.0000000     
 -----------------------------------------------




 CHD PACKAGE (CHD-FROM-IBOUND) FLOW RATES   PERIOD      7   STEP        7
 -----------------------------------------------
   NUMBER   CELLID                    RATE      
 -----------------------------------------------
     1      (1,1,1)              -5199.7904     
     2      (1,1,2)              -5199.7873     
     3      (1,1,3)              -5199.7871     
     4      (1,1,4)              -5199.7886     
     5      (1,1,5)              -5199.7901     
     6      (1,1,6)              -5199.7916     
     7      (1,1,7)              -5199.7933     
     8      (1,1,8)              -5199.7957     
     9      (1,1,9)              -5199.7982     
     10     (1,21,1)             -5199.7975     
     11     (1,21,2)             -5199.7939     
     12     (1,21,3)             -5199.7909     
     13     (1,21,4)             -5199.7891     
     14     (1,21,5)             -5199.7874     
     15     (1,21,6)             -5199.7854     
     16     (1,21,7)             -5199.7840     
     17     (1,21,8)             -5199.7857     
     18     (1,21,9)             -5199.7917     
 -----------------------------------------------




 HEAD WILL BE SAVED ON UNIT 1016 AT END OF TIME STEP    7, STRESS PERIOD    7


  VOLUME BUDGET FOR ENTIRE MODEL AT END OF TIME STEP    7, STRESS PERIOD   7
  ---------------------------------------------------------------------------------------------------

     CUMULATIVE VOLUME      L**3       RATES FOR THIS TIME STEP      L**3/T          PACKAGE NAME    
     ------------------                 ------------------------                     ----------------

           IN:                                      IN:
           ---                                      ---
              STO-SS =      185715.9933                STO-SS =        7788.1206     STORAGE                          
              STO-SY =        7361.1295                STO-SY =         308.1080     STORAGE                          
                 WEL =           0.0000                   WEL =           0.0000     WEL-1                            
                RCHA =    63653447.3596                  RCHA =       85500.0000     RCH-1                            
                 CHD =           0.0000                   CHD =           0.0000     CHD-FROM-IBOUND                  

            TOTAL IN =    63846524.4825              TOTAL IN =       93596.2287

          OUT:                                     OUT:
          ----                                     ----
              STO-SS =    46536659.9393                STO-SS =           0.0000     STORAGE                          
              STO-SY =     1425275.1378                STO-SY =           0.0000     STORAGE                          
                 WEL =           0.0000                   WEL =           0.0000     WEL-1                            
                RCHA =           0.0000                  RCHA =           0.0000     RCH-1                            
                 CHD =    15884589.9385                   CHD =       93596.2277     CHD-FROM-IBOUND                  

           TOTAL OUT =    63846525.0156             TOTAL OUT =       93596.2277

            IN - OUT =          -0.5332              IN - OUT =       9.3217E-04

 PERCENT DISCREPANCY =          -0.00     PERCENT DISCREPANCY =           0.00




         TIME SUMMARY AT END OF TIME STEP    7 IN STRESS PERIOD    7
                    SECONDS     MINUTES      HOURS       DAYS        YEARS
                    -----------------------------------------------------------
   TIME STEP LENGTH 4.69097E+05  7818.3      130.30      5.4294     1.48648E-02
 STRESS PERIOD TIME 2.02908E+06  33818.      563.63      23.485     6.42978E-02
         TOTAL TIME 1.51619E+07 2.52698E+05  4211.6      175.48     0.48045    


end timestep


start timestep kper="7" kstp="8" mode="normal"

 UBDSV1 SAVING     FLOW-JA-FACE ON UNIT   1015 AT TIME STEP      8, STRESS PERIOD      7
 UBDSV06 SAVING              WEL IN MODEL MUMODEL          PACKAGE MUMODEL         CONNECTED TO MODEL MUMODEL          PACKAGE WEL-1            ON UNIT   1015 AT TIME STEP      8, STRESS PERIOD      7
 UBDSV06 SAVING             RCHA IN MODEL MUMODEL          PACKAGE MUMODEL         CONNECTED TO MODEL MUMODEL          PACKAGE RCH-1            ON UNIT   1015 AT TIME STEP      8, STRESS PERIOD      7

 WEL PACKAGE (WEL-1) FLOW RATES   PERIOD      7   STEP        8
 -----------------------------------------------
   NUMBER   CELLID                    RATE      
 -----------------------------------------------
     1      (1,5,5)               0.0000000     
     2      (1,11,5)              0.0000000     
     3      (1,5,5)               0.0000000     
 -----------------------------------------------




 CHD PACKAGE (CHD-FROM-IBOUND) FLOW RATES   PERIOD      7   STEP        8
 -----------------------------------------------
   NUMBER   CELLID                    RATE      
 -----------------------------------------------
     1      (1,1,1)              -5195.3717     
     2      (1,1,2)              -5195.3687     
     3      (1,1,3)              -5195.3685     
     4      (1,1,4)              -5195.3699     
     5      (1,1,5)              -5195.3714     
     6      (1,1,6)              -5195.3729     
     7      (1,1,7)              -5195.3746     
     8      (1,1,8)              -5195.3770     
     9      (1,1,9)              -5195.3794     
     10     (1,21,1)             -5195.3787     
     11     (1,21,2)             -5195.3751     
     12     (1,21,3)             -5195.3722     
     13     (1,21,4)             -5195.3704     
     14     (1,21,5)             -5195.3687     
     15     (1,21,6)             -5195.3667     
     16     (1,21,7)             -5195.3654     
     17     (1,21,8)             -5195.3671     
     18     (1,21,9)             -5195.3730     
 -----------------------------------------------




 HEAD WILL BE SAVED ON UNIT 1016 AT END OF TIME STEP    8, STRESS PERIOD    7


  VOLUME BUDGET FOR ENTIRE MODEL AT END OF TIME STEP    8, STRESS PERIOD   7
  ---------------------------------------------------------------------------------------------------

     CUMULATIVE VOLUME      L**3       RATES FOR THIS TIME STEP      L**3/T          PACKAGE NAME    
     ------------------                 ------------------------                     ----------------

           IN:                                      IN:
           ---                                      ---
              STO-SS =      235961.3214                STO-SS =        7711.9741     STORAGE                          
              STO-SY =        9346.4428                STO-SY =         304.7186     STORAGE                          
                 WEL =           0.0000                   WEL =           0.0000     WEL-1                            
                RCHA =    64210500.0000                  RCHA =       85500.0000     RCH-1                            
                 CHD =           0.0000                   CHD =           0.0000     CHD-FROM-IBOUND                  

            TOTAL IN =    64455807.7642              TOTAL IN =       93516.6927

          OUT:                                     OUT:
          ----                                     ----
              STO-SS =    46536659.9393                STO-SS =           0.0000     STORAGE                          
              STO-SY =     1425275.1378                STO-SY =           0.0000     STORAGE                          
                 WEL =           0.0000                   WEL =           0.0000     WEL-1                            
                RCHA =           0.0000                  RCHA =           0.0000     RCH-1                            
                 CHD =    16493873.2101                   CHD =       93516.6911     CHD-FROM-IBOUND                  

           TOTAL OUT =    64455808.2872             TOTAL OUT =       93516.6911

            IN - OUT =          -0.5231              IN - OUT =       1.5519E-03

 PERCENT DISCREPANCY =          -0.00     PERCENT DISCREPANCY =           0.00




         TIME SUMMARY AT END OF TIME STEP    8 IN STRESS PERIOD    7
                    SECONDS     MINUTES      HOURS       DAYS        YEARS
                    -----------------------------------------------------------
   TIME STEP LENGTH 5.62916E+05  9381.9      156.37      6.5152     1.78377E-02
 STRESS PERIOD TIME 2.59200E+06  43200.      720.00      30.000     8.21355E-02
         TOTAL TIME 1.57248E+07 2.62080E+05  4368.0      182.00     0.49829    


end timestep


start timestep kper="8" kstp="1" mode="normal"


 OUTPUT CONTROL FOR STRESS PERIOD 8 IS REPEATED USING SETTINGS FROM A PREVIOUS STRESS PERIOD.


 STRESS PERIOD 8 IS TRANSIENT


 REUSING WELS FROM LAST STRESS PERIOD

 REUSING CHDS FROM LAST STRESS PERIOD
 UBDSV1 SAVING     FLOW-JA-FACE ON UNIT   1015 AT TIME STEP      1, STRESS PERIOD      8
 UBDSV06 SAVING              WEL IN MODEL MUMODEL          PACKAGE MUMODEL         CONNECTED TO MODEL MUMODEL          PACKAGE WEL-1            ON UNIT   1015 AT TIME STEP      1, STRESS PERIOD      8
 UBDSV06 SAVING             RCHA IN MODEL MUMODEL          PACKAGE MUMODEL         CONNECTED TO MODEL MUMODEL          PACKAGE RCH-1            ON UNIT   1015 AT TIME STEP      1, STRESS PERIOD      8

 WEL PACKAGE (WEL-1) FLOW RATES   PERIOD      8   STEP        1
 -----------------------------------------------
   NUMBER   CELLID                    RATE      
 -----------------------------------------------
     1      (1,5,5)               0.0000000     
     2      (1,11,5)              0.0000000     
     3      (1,5,5)               0.0000000     
 -----------------------------------------------




 CHD PACKAGE (CHD-FROM-IBOUND) FLOW RATES   PERIOD      8   STEP        1
 -----------------------------------------------
   NUMBER   CELLID                    RATE      
 -----------------------------------------------
     1      (1,1,1)              -5192.5327     
     2      (1,1,2)              -5192.5297     
     3      (1,1,3)              -5192.5295     
     4      (1,1,4)              -5192.5309     
     5      (1,1,5)              -5192.5324     
     6      (1,1,6)              -5192.5339     
     7      (1,1,7)              -5192.5356     
     8      (1,1,8)              -5192.5380     
     9      (1,1,9)              -5192.5404     
     10     (1,21,1)             -5192.5396     
     11     (1,21,2)             -5192.5361     
     12     (1,21,3)             -5192.5332     
     13     (1,21,4)             -5192.5314     
     14     (1,21,5)             -5192.5297     
     15     (1,21,6)             -5192.5278     
     16     (1,21,7)             -5192.5264     
     17     (1,21,8)             -5192.5282     
     18     (1,21,9)             -5192.5340     
 -----------------------------------------------




 HEAD WILL BE SAVED ON UNIT 1016 AT END OF TIME STEP    1, STRESS PERIOD    8


  VOLUME BUDGET FOR ENTIRE MODEL AT END OF TIME STEP    1, STRESS PERIOD   8
  ---------------------------------------------------------------------------------------------------

     CUMULATIVE VOLUME      L**3       RATES FOR THIS TIME STEP      L**3/T          PACKAGE NAME    
     ------------------                 ------------------------                     ----------------

           IN:                                      IN:
           ---                                      ---
              STO-SS =      390646.8047                STO-SS =       82328.0292     STORAGE                          
              STO-SY =       14208.1892                STO-SY =        2587.5602     STORAGE                          
                 WEL =           0.0000                   WEL =           0.0000     WEL-1                            
                RCHA =    64226564.5274                  RCHA =        8550.0000     RCH-1                            
                 CHD =           0.0000                   CHD =           0.0000     CHD-FROM-IBOUND                  

            TOTAL IN =    64631419.5213              TOTAL IN =       93465.5894

          OUT:                                     OUT:
          ----                                     ----
              STO-SS =    46536659.9393                STO-SS =           0.0000     STORAGE                          
              STO-SY =     1425275.1378                STO-SY =           0.0000     STORAGE                          
                 WEL =           0.0000                   WEL =           0.0000     WEL-1                            
                RCHA =           0.0000                  RCHA =           0.0000     RCH-1                            
                 CHD =    16669484.9672                   CHD =       93465.5894     CHD-FROM-IBOUND                  

           TOTAL OUT =    64631420.0442             TOTAL OUT =       93465.5894

            IN - OUT =          -0.5229              IN - OUT =       5.9905E-05

 PERCENT DISCREPANCY =          -0.00     PERCENT DISCREPANCY =           0.00




         TIME SUMMARY AT END OF TIME STEP    1 IN STRESS PERIOD    8
                    SECONDS     MINUTES      HOURS       DAYS        YEARS
                    -----------------------------------------------------------
   TIME STEP LENGTH 1.62336E+05  2705.6      45.093      1.8789     5.14413E-03
 STRESS PERIOD TIME 1.62336E+05  2705.6      45.093      1.8789     5.14413E-03
         TOTAL TIME 1.58871E+07 2.64786E+05  4413.1      183.88     0.50343    


end timestep


start timestep kper="8" kstp="2" mode="normal"

 UBDSV1 SAVING     FLOW-JA-FACE ON UNIT   1015 AT TIME STEP      2, STRESS PERIOD      8
 UBDSV06 SAVING              WEL IN MODEL MUMODEL          PACKAGE MUMODEL         CONNECTED TO MODEL MUMODEL          PACKAGE WEL-1            ON UNIT   1015 AT TIME STEP      2, STRESS PERIOD      8
 UBDSV06 SAVING             RCHA IN MODEL MUMODEL          PACKAGE MUMODEL         CONNECTED TO MODEL MUMODEL          PACKAGE RCH-1            ON UNIT   1015 AT TIME STEP      2, STRESS PERIOD      8

 WEL PACKAGE (WEL-1) FLOW RATES   PERIOD      8   STEP        2
 -----------------------------------------------
   NUMBER   CELLID                    RATE      
 -----------------------------------------------
     1      (1,5,5)               0.0000000     
     2      (1,11,5)              0.0000000     
     3      (1,5,5)               0.0000000     
 -----------------------------------------------




 CHD PACKAGE (CHD-FROM-IBOUND) FLOW RATES   PERIOD      8   STEP        2
 -----------------------------------------------
   NUMBER   CELLID                    RATE      
 -----------------------------------------------
     1      (1,1,1)              -5189.1451     
     2      (1,1,2)              -5189.1422     
     3      (1,1,3)              -5189.1420     
     4      (1,1,4)              -5189.1434     
     5      (1,1,5)              -5189.1449     
     6      (1,1,6)              -5189.1463     
     7      (1,1,7)              -5189.1480     
     8      (1,1,8)              -5189.1504     
     9      (1,1,9)              -5189.1528     
     10     (1,21,1)             -5189.1520     
     11     (1,21,2)             -5189.1485     
     12     (1,21,3)             -5189.1456     
     13     (1,21,4)             -5189.1438     
     14     (1,21,5)             -5189.1422     
     15     (1,21,6)             -5189.1402     
     16     (1,21,7)             -5189.1389     
     17     (1,21,8)             -5189.1407     
     18     (1,21,9)             -5189.1464     
 -----------------------------------------------




 HEAD WILL BE SAVED ON UNIT 1016 AT END OF TIME STEP    2, STRESS PERIOD    8


  VOLUME BUDGET FOR ENTIRE MODEL AT END OF TIME STEP    2, STRESS PERIOD   8
  ---------------------------------------------------------------------------------------------------

     CUMULATIVE VOLUME      L**3       RATES FOR THIS TIME STEP      L**3/T          PACKAGE NAME    
     ------------------                 ------------------------                     ----------------

           IN:                                      IN:
           ---                                      ---
              STO-SS =      576137.2223                STO-SS =       82269.4121     STORAGE                          
              STO-SY =       20036.9668                STO-SY =        2585.2015     STORAGE                          
                 WEL =           0.0000                   WEL =           0.0000     WEL-1                            
                RCHA =    64245841.9603                  RCHA =        8550.0000     RCH-1                            
                 CHD =           0.0000                   CHD =           0.0000     CHD-FROM-IBOUND                  

            TOTAL IN =    64842016.1494              TOTAL IN =       93404.6136

          OUT:                                     OUT:
          ----                                     ----
              STO-SS =    46536659.9393                STO-SS =           0.0000     STORAGE                          
              STO-SY =     1425275.1378                STO-SY =           0.0000     STORAGE                          
                 WEL =           0.0000                   WEL =           0.0000     WEL-1                            
                RCHA =           0.0000                  RCHA =           0.0000     RCH-1                            
                 CHD =    16880081.5950                   CHD =       93404.6135     CHD-FROM-IBOUND                  

           TOTAL OUT =    64842016.6721             TOTAL OUT =       93404.6135

            IN - OUT =          -0.5227              IN - OUT =       9.3544E-05

 PERCENT DISCREPANCY =          -0.00     PERCENT DISCREPANCY =           0.00




         TIME SUMMARY AT END OF TIME STEP    2 IN STRESS PERIOD    8
                    SECONDS     MINUTES      HOURS       DAYS        YEARS
                    -----------------------------------------------------------
   TIME STEP LENGTH 1.94804E+05  3246.7      54.112      2.2547     6.17295E-03
 STRESS PERIOD TIME 3.57140E+05  5952.3      99.206      4.1336     1.13171E-02
         TOTAL TIME 1.60819E+07 2.68032E+05  4467.2      186.13     0.50961    


end timestep


start timestep kper="8" kstp="3" mode="normal"

 UBDSV1 SAVING     FLOW-JA-FACE ON UNIT   1015 AT TIME STEP      3, STRESS PERIOD      8
 UBDSV06 SAVING              WEL IN MODEL MUMODEL          PACKAGE MUMODEL         CONNECTED TO MODEL MUMODEL          PACKAGE WEL-1            ON UNIT   1015 AT TIME STEP      3, STRESS PERIOD      8
 UBDSV06 SAVING             RCHA IN MODEL MUMODEL          PACKAGE MUMODEL         CONNECTED TO MODEL MUMODEL          PACKAGE RCH-1            ON UNIT   1015 AT TIME STEP      3, STRESS PERIOD      8

 WEL PACKAGE (WEL-1) FLOW RATES   PERIOD      8   STEP        3
 -----------------------------------------------
   NUMBER   CELLID                    RATE      
 -----------------------------------------------
     1      (1,5,5)               0.0000000     
     2      (1,11,5)              0.0000000     
     3      (1,5,5)               0.0000000     
 -----------------------------------------------




 CHD PACKAGE (CHD-FROM-IBOUND) FLOW RATES   PERIOD      8   STEP        3
 -----------------------------------------------
   NUMBER   CELLID                    RATE      
 -----------------------------------------------
     1      (1,1,1)              -5185.1074     
     2      (1,1,2)              -5185.1045     
     3      (1,1,3)              -5185.1043     
     4      (1,1,4)              -5185.1056     
     5      (1,1,5)              -5185.1072     
     6      (1,1,6)              -5185.1086     
     7      (1,1,7)              -5185.1103     
     8      (1,1,8)              -5185.1127     
     9      (1,1,9)              -5185.1151     
     10     (1,21,1)             -5185.1143     
     11     (1,21,2)             -5185.1108     
     12     (1,21,3)             -5185.1079     
     13     (1,21,4)             -5185.1061     
     14     (1,21,5)             -5185.1044     
     15     (1,21,6)             -5185.1025     
     16     (1,21,7)             -5185.1012     
     17     (1,21,8)             -5185.1030     
     18     (1,21,9)             -5185.1087     
 -----------------------------------------------




 HEAD WILL BE SAVED ON UNIT 1016 AT END OF TIME STEP    3, STRESS PERIOD    8


  VOLUME BUDGET FOR ENTIRE MODEL AT END OF TIME STEP    3, STRESS PERIOD   8
  ---------------------------------------------------------------------------------------------------

     CUMULATIVE VOLUME      L**3       RATES FOR THIS TIME STEP      L**3/T          PACKAGE NAME    
     ------------------                 ------------------------                     ----------------

           IN:                                      IN:
           ---                                      ---
              STO-SS =      798536.6852                STO-SS =       82199.5430     STORAGE                          
              STO-SY =       27023.8972                STO-SY =        2582.3915     STORAGE                          
                 WEL =           0.0000                   WEL =           0.0000     WEL-1                            
                RCHA =    64268974.8798                  RCHA =        8550.0000     RCH-1                            
                 CHD =           0.0000                   CHD =           0.0000     CHD-FROM-IBOUND                  

            TOTAL IN =    65094535.4622              TOTAL IN =       93331.9345

          OUT:                                     OUT:
          ----                                     ----
              STO-SS =    46536659.9393                STO-SS =           0.0000     STORAGE                          
              STO-SY =     1425275.1378                STO-SY =           0.0000     STORAGE                          
                 WEL =           0.0000                   WEL =           0.0000     WEL-1                            
                RCHA =           0.0000                  RCHA =           0.0000     RCH-1                            
                 CHD =    17132600.9074                   CHD =       93331.9343     CHD-FROM-IBOUND                  

           TOTAL OUT =    65094535.9845             TOTAL OUT =       93331.9343

            IN - OUT =          -0.5223              IN - OUT =       1.6217E-04

 PERCENT DISCREPANCY =          -0.00     PERCENT DISCREPANCY =           0.00




         TIME SUMMARY AT END OF TIME STEP    3 IN STRESS PERIOD    8
                    SECONDS     MINUTES      HOURS       DAYS        YEARS
                    -----------------------------------------------------------
   TIME STEP LENGTH 2.33764E+05  3896.1      64.935      2.7056     7.40754E-03
 STRESS PERIOD TIME 5.90904E+05  9848.4      164.14      6.8392     1.87246E-02
         TOTAL TIME 1.63157E+07 2.71928E+05  4532.1      188.84     0.51701    


end timestep


start timestep kper="8" kstp="4" mode="normal"

 UBDSV1 SAVING     FLOW-JA-FACE ON UNIT   1015 AT TIME STEP      4, STRESS PERIOD      8
 UBDSV06 SAVING              WEL IN MODEL MUMODEL          PACKAGE MUMODEL         CONNECTED TO MODEL MUMODEL          PACKAGE WEL-1            ON UNIT   1015 AT TIME STEP      4, STRESS PERIOD      8
 UBDSV06 SAVING             RCHA IN MODEL MUMODEL          PACKAGE MUMODEL         CONNECTED TO MODEL MUMODEL          PACKAGE RCH-1            ON UNIT   1015 AT TIME STEP      4, STRESS PERIOD      8

 WEL PACKAGE (WEL-1) FLOW RATES   PERIOD      8   STEP        4
 -----------------------------------------------
   NUMBER   CELLID                    RATE      
 -----------------------------------------------
     1      (1,5,5)               0.0000000     
     2      (1,11,5)              0.0000000     
     3      (1,5,5)               0.0000000     
 -----------------------------------------------




 CHD PACKAGE (CHD-FROM-IBOUND) FLOW RATES   PERIOD      8   STEP        4
 -----------------------------------------------
   NUMBER   CELLID                    RATE      
 -----------------------------------------------
     1      (1,1,1)              -5180.3009     
     2      (1,1,2)              -5180.2981     
     3      (1,1,3)              -5180.2978     
     4      (1,1,4)              -5180.2992     
     5      (1,1,5)              -5180.3007     
     6      (1,1,6)              -5180.3021     
     7      (1,1,7)              -5180.3038     
     8      (1,1,8)              -5180.3062     
     9      (1,1,9)              -5180.3086     
     10     (1,21,1)             -5180.3078     
     11     (1,21,2)             -5180.3043     
     12     (1,21,3)             -5180.3014     
     13     (1,21,4)             -5180.2996     
     14     (1,21,5)             -5180.2980     
     15     (1,21,6)             -5180.2961     
     16     (1,21,7)             -5180.2948     
     17     (1,21,8)             -5180.2966     
     18     (1,21,9)             -5180.3022     
 -----------------------------------------------




 HEAD WILL BE SAVED ON UNIT 1016 AT END OF TIME STEP    4, STRESS PERIOD    8


  VOLUME BUDGET FOR ENTIRE MODEL AT END OF TIME STEP    4, STRESS PERIOD   8
  ---------------------------------------------------------------------------------------------------

     CUMULATIVE VOLUME      L**3       RATES FOR THIS TIME STEP      L**3/T          PACKAGE NAME    
     ------------------                 ------------------------                     ----------------

           IN:                                      IN:
           ---                                      ---
              STO-SS =     1065146.0012                STO-SS =       82116.3701     STORAGE                          
              STO-SY =       35397.3601                STO-SY =        2579.0486     STORAGE                          
                 WEL =           0.0000                   WEL =           0.0000     WEL-1                            
                RCHA =    64296734.3831                  RCHA =        8550.0000     RCH-1                            
                 CHD =           0.0000                   CHD =           0.0000     CHD-FROM-IBOUND                  

            TOTAL IN =    65397277.7444              TOTAL IN =       93245.4187

          OUT:                                     OUT:
          ----                                     ----
              STO-SS =    46536659.9393                STO-SS =           0.0000     STORAGE                          
              STO-SY =     1425275.1378                STO-SY =           0.0000     STORAGE                          
                 WEL =           0.0000                   WEL =           0.0000     WEL-1                            
                RCHA =           0.0000                  RCHA =           0.0000     RCH-1                            
                 CHD =    17435343.1887                   CHD =       93245.4184     CHD-FROM-IBOUND                  

           TOTAL OUT =    65397278.2658             TOTAL OUT =       93245.4184

            IN - OUT =          -0.5214              IN - OUT =       2.7917E-04

 PERCENT DISCREPANCY =          -0.00     PERCENT DISCREPANCY =           0.00




         TIME SUMMARY AT END OF TIME STEP    4 IN STRESS PERIOD    8
                    SECONDS     MINUTES      HOURS       DAYS        YEARS
                    -----------------------------------------------------------
   TIME STEP LENGTH 2.80517E+05  4675.3      77.921      3.2467     8.88905E-03
 STRESS PERIOD TIME 8.71421E+05  14524.      242.06      10.086     2.76137E-02
         TOTAL TIME 1.65962E+07 2.76604E+05  4610.1      192.09     0.52590    


end timestep


start timestep kper="8" kstp="5" mode="normal"

 UBDSV1 SAVING     FLOW-JA-FACE ON UNIT   1015 AT TIME STEP      5, STRESS PERIOD      8
 UBDSV06 SAVING              WEL IN MODEL MUMODEL          PACKAGE MUMODEL         CONNECTED TO MODEL MUMODEL          PACKAGE WEL-1            ON UNIT   1015 AT TIME STEP      5, STRESS PERIOD      8
 UBDSV06 SAVING             RCHA IN MODEL MUMODEL          PACKAGE MUMODEL         CONNECTED TO MODEL MUMODEL          PACKAGE RCH-1            ON UNIT   1015 AT TIME STEP      5, STRESS PERIOD      8

 WEL PACKAGE (WEL-1) FLOW RATES   PERIOD      8   STEP        5
 -----------------------------------------------
   NUMBER   CELLID                    RATE      
 -----------------------------------------------
     1      (1,5,5)               0.0000000     
     2      (1,11,5)              0.0000000     
     3      (1,5,5)               0.0000000     
 -----------------------------------------------




 CHD PACKAGE (CHD-FROM-IBOUND) FLOW RATES   PERIOD      8   STEP        5
 -----------------------------------------------
   NUMBER   CELLID                    RATE      
 -----------------------------------------------
     1      (1,1,1)              -5174.5883     
     2      (1,1,2)              -5174.5854     
     3      (1,1,3)              -5174.5852     
     4      (1,1,4)              -5174.5865     
     5      (1,1,5)              -5174.5880     
     6      (1,1,6)              -5174.5894     
     7      (1,1,7)              -5174.5911     
     8      (1,1,8)              -5174.5935     
     9      (1,1,9)              -5174.5959     
     10     (1,21,1)             -5174.5950     
     11     (1,21,2)             -5174.5916     
     12     (1,21,3)             -5174.5887     
     13     (1,21,4)             -5174.5869     
     14     (1,21,5)             -5174.5853     
     15     (1,21,6)             -5174.5834     
     16     (1,21,7)             -5174.5822     
     17     (1,21,8)             -5174.5840     
     18     (1,21,9)             -5174.5895     
 -----------------------------------------------




 HEAD WILL BE SAVED ON UNIT 1016 AT END OF TIME STEP    5, STRESS PERIOD    8


  VOLUME BUDGET FOR ENTIRE MODEL AT END OF TIME STEP    5, STRESS PERIOD   8
  ---------------------------------------------------------------------------------------------------

     CUMULATIVE VOLUME      L**3       RATES FOR THIS TIME STEP      L**3/T          PACKAGE NAME    
     ------------------                 ------------------------                     ----------------

           IN:                                      IN:
           ---                                      ---
              STO-SS =     1384692.0232                STO-SS =       82017.5122     STORAGE                          
              STO-SY =       45430.0470                STO-SY =        2575.0783     STORAGE                          
                 WEL =           0.0000                   WEL =           0.0000     WEL-1                            
                RCHA =    64330045.7872                  RCHA =        8550.0000     RCH-1                            
                 CHD =           0.0000                   CHD =           0.0000     CHD-FROM-IBOUND                  

            TOTAL IN =    65760167.8574              TOTAL IN =       93142.5905

          OUT:                                     OUT:
          ----                                     ----
              STO-SS =    46536659.9393                STO-SS =           0.0000     STORAGE                          
              STO-SY =     1425275.1378                STO-SY =           0.0000     STORAGE                          
                 WEL =           0.0000                   WEL =           0.0000     WEL-1                            
                RCHA =           0.0000                  RCHA =           0.0000     RCH-1                            
                 CHD =    17798233.2999                   CHD =       93142.5901     CHD-FROM-IBOUND                  

           TOTAL OUT =    65760168.3769             TOTAL OUT =       93142.5901

            IN - OUT =          -0.5196              IN - OUT =       4.6933E-04

 PERCENT DISCREPANCY =          -0.00     PERCENT DISCREPANCY =           0.00




         TIME SUMMARY AT END OF TIME STEP    5 IN STRESS PERIOD    8
                    SECONDS     MINUTES      HOURS       DAYS        YEARS
                    -----------------------------------------------------------
   TIME STEP LENGTH 3.36621E+05  5610.3      93.506      3.8961     1.06669E-02
 STRESS PERIOD TIME 1.20804E+06  20134.      335.57      13.982     3.82805E-02
         TOTAL TIME 1.69328E+07 2.82214E+05  4703.6      195.98     0.53657    


end timestep


start timestep kper="8" kstp="6" mode="normal"

 UBDSV1 SAVING     FLOW-JA-FACE ON UNIT   1015 AT TIME STEP      6, STRESS PERIOD      8
 UBDSV06 SAVING              WEL IN MODEL MUMODEL          PACKAGE MUMODEL         CONNECTED TO MODEL MUMODEL          PACKAGE WEL-1            ON UNIT   1015 AT TIME STEP      6, STRESS PERIOD      8
 UBDSV06 SAVING             RCHA IN MODEL MUMODEL          PACKAGE MUMODEL         CONNECTED TO MODEL MUMODEL          PACKAGE RCH-1            ON UNIT   1015 AT TIME STEP      6, STRESS PERIOD      8

 WEL PACKAGE (WEL-1) FLOW RATES   PERIOD      8   STEP        6
 -----------------------------------------------
   NUMBER   CELLID                    RATE      
 -----------------------------------------------
     1      (1,5,5)               0.0000000     
     2      (1,11,5)              0.0000000     
     3      (1,5,5)               0.0000000     
 -----------------------------------------------




 CHD PACKAGE (CHD-FROM-IBOUND) FLOW RATES   PERIOD      8   STEP        6
 -----------------------------------------------
   NUMBER   CELLID                    RATE      
 -----------------------------------------------
     1      (1,1,1)              -5167.8108     
     2      (1,1,2)              -5167.8080     
     3      (1,1,3)              -5167.8078     
     4      (1,1,4)              -5167.8091     
     5      (1,1,5)              -5167.8106     
     6      (1,1,6)              -5167.8120     
     7      (1,1,7)              -5167.8137     
     8      (1,1,8)              -5167.8160     
     9      (1,1,9)              -5167.8184     
     10     (1,21,1)             -5167.8175     
     11     (1,21,2)             -5167.8141     
     12     (1,21,3)             -5167.8113     
     13     (1,21,4)             -5167.8095     
     14     (1,21,5)             -5167.8079     
     15     (1,21,6)             -5167.8060     
     16     (1,21,7)             -5167.8048     
     17     (1,21,8)             -5167.8066     
     18     (1,21,9)             -5167.8121     
 -----------------------------------------------




 HEAD WILL BE SAVED ON UNIT 1016 AT END OF TIME STEP    6, STRESS PERIOD    8


  VOLUME BUDGET FOR ENTIRE MODEL AT END OF TIME STEP    6, STRESS PERIOD   8
  ---------------------------------------------------------------------------------------------------

     CUMULATIVE VOLUME      L**3       RATES FOR THIS TIME STEP      L**3/T          PACKAGE NAME    
     ------------------                 ------------------------                     ----------------

           IN:                                      IN:
           ---                                      ---
              STO-SS =     1767598.8969                STO-SS =       81900.2247     STORAGE                          
              STO-SY =       57447.2689                STO-SY =        2570.3722     STORAGE                          
                 WEL =           0.0000                   WEL =           0.0000     WEL-1                            
                RCHA =    64370019.4720                  RCHA =        8550.0000     RCH-1                            
                 CHD =           0.0000                   CHD =           0.0000     CHD-FROM-IBOUND                  

            TOTAL IN =    66195065.6378              TOTAL IN =       93020.5969

          OUT:                                     OUT:
          ----                                     ----
              STO-SS =    46536659.9393                STO-SS =           0.0000     STORAGE                          
              STO-SY =     1425275.1378                STO-SY =           0.0000     STORAGE                          
                 WEL =           0.0000                   WEL =           0.0000     WEL-1                            
                RCHA =           0.0000                  RCHA =           0.0000     RCH-1                            
                 CHD =    18233131.0767                   CHD =       93020.5961     CHD-FROM-IBOUND                  

           TOTAL OUT =    66195066.1537             TOTAL OUT =       93020.5961

            IN - OUT =          -0.5159              IN - OUT =       7.8348E-04

 PERCENT DISCREPANCY =          -0.00     PERCENT DISCREPANCY =           0.00




         TIME SUMMARY AT END OF TIME STEP    6 IN STRESS PERIOD    8
                    SECONDS     MINUTES      HOURS       DAYS        YEARS
                    -----------------------------------------------------------
   TIME STEP LENGTH 4.03945E+05  6732.4      112.21      4.6753     1.28002E-02
 STRESS PERIOD TIME 1.61199E+06  26866.      447.77      18.657     5.10808E-02
         TOTAL TIME 1.73368E+07 2.88946E+05  4815.8      200.66     0.54937    


end timestep


start timestep kper="8" kstp="7" mode="normal"

 UBDSV1 SAVING     FLOW-JA-FACE ON UNIT   1015 AT TIME STEP      7, STRESS PERIOD      8
 UBDSV06 SAVING              WEL IN MODEL MUMODEL          PACKAGE MUMODEL         CONNECTED TO MODEL MUMODEL          PACKAGE WEL-1            ON UNIT   1015 AT TIME STEP      7, STRESS PERIOD      8
 UBDSV06 SAVING             RCHA IN MODEL MUMODEL          PACKAGE MUMODEL         CONNECTED TO MODEL MUMODEL          PACKAGE RCH-1            ON UNIT   1015 AT TIME STEP      7, STRESS PERIOD      8

 WEL PACKAGE (WEL-1) FLOW RATES   PERIOD      8   STEP        7
 -----------------------------------------------
   NUMBER   CELLID                    RATE      
 -----------------------------------------------
     1      (1,5,5)               0.0000000     
     2      (1,11,5)              0.0000000     
     3      (1,5,5)               0.0000000     
 -----------------------------------------------




 CHD PACKAGE (CHD-FROM-IBOUND) FLOW RATES   PERIOD      8   STEP        7
 -----------------------------------------------
   NUMBER   CELLID                    RATE      
 -----------------------------------------------
     1      (1,1,1)              -5159.7874     
     2      (1,1,2)              -5159.7847     
     3      (1,1,3)              -5159.7844     
     4      (1,1,4)              -5159.7857     
     5      (1,1,5)              -5159.7871     
     6      (1,1,6)              -5159.7885     
     7      (1,1,7)              -5159.7902     
     8      (1,1,8)              -5159.7926     
     9      (1,1,9)              -5159.7949     
     10     (1,21,1)             -5159.7939     
     11     (1,21,2)             -5159.7906     
     12     (1,21,3)             -5159.7878     
     13     (1,21,4)             -5159.7860     
     14     (1,21,5)             -5159.7844     
     15     (1,21,6)             -5159.7826     
     16     (1,21,7)             -5159.7815     
     17     (1,21,8)             -5159.7833     
     18     (1,21,9)             -5159.7887     
 -----------------------------------------------




 HEAD WILL BE SAVED ON UNIT 1016 AT END OF TIME STEP    7, STRESS PERIOD    8


  VOLUME BUDGET FOR ENTIRE MODEL AT END OF TIME STEP    7, STRESS PERIOD   8
  ---------------------------------------------------------------------------------------------------

     CUMULATIVE VOLUME      L**3       RATES FOR THIS TIME STEP      L**3/T          PACKAGE NAME    
     ------------------                 ------------------------                     ----------------

           IN:                                      IN:
           ---                                      ---
              STO-SS =     2226308.1162                STO-SS =       81761.3688     STORAGE                          
              STO-SY =       71836.7122                STO-SY =        2564.8069     STORAGE                          
                 WEL =           0.0000                   WEL =           0.0000     WEL-1                            
                RCHA =    64417987.8938                  RCHA =        8550.0000     RCH-1                            
                 CHD =           0.0000                   CHD =           0.0000     CHD-FROM-IBOUND                  

            TOTAL IN =    66716132.7222              TOTAL IN =       92876.1757

          OUT:                                     OUT:
          ----                                     ----
              STO-SS =    46536659.9393                STO-SS =           0.0000     STORAGE                          
              STO-SY =     1425275.1378                STO-SY =           0.0000     STORAGE                          
                 WEL =           0.0000                   WEL =           0.0000     WEL-1                            
                RCHA =           0.0000                  RCHA =           0.0000     RCH-1                            
                 CHD =    18754198.1538                   CHD =       92876.1744     CHD-FROM-IBOUND                  

           TOTAL OUT =    66716133.2308             TOTAL OUT =       92876.1744

            IN - OUT =          -0.5086              IN - OUT =       1.3021E-03

 PERCENT DISCREPANCY =          -0.00     PERCENT DISCREPANCY =           0.00




         TIME SUMMARY AT END OF TIME STEP    7 IN STRESS PERIOD    8
                    SECONDS     MINUTES      HOURS       DAYS        YEARS
                    -----------------------------------------------------------
   TIME STEP LENGTH 4.84734E+05  8078.9      134.65      5.6103     1.53603E-02
 STRESS PERIOD TIME 2.09672E+06  34945.      582.42      24.268     6.64410E-02
         TOTAL TIME 1.78215E+07 2.97025E+05  4950.4      206.27     0.56473    


end timestep


start timestep kper="8" kstp="8" mode="normal"

 UBDSV1 SAVING     FLOW-JA-FACE ON UNIT   1015 AT TIME STEP      8, STRESS PERIOD      8
 UBDSV06 SAVING              WEL IN MODEL MUMODEL          PACKAGE MUMODEL         CONNECTED TO MODEL MUMODEL          PACKAGE WEL-1            ON UNIT   1015 AT TIME STEP      8, STRESS PERIOD      8
 UBDSV06 SAVING             RCHA IN MODEL MUMODEL          PACKAGE MUMODEL         CONNECTED TO MODEL MUMODEL          PACKAGE RCH-1            ON UNIT   1015 AT TIME STEP      8, STRESS PERIOD      8

 WEL PACKAGE (WEL-1) FLOW RATES   PERIOD      8   STEP        8
 -----------------------------------------------
   NUMBER   CELLID                    RATE      
 -----------------------------------------------
     1      (1,5,5)               0.0000000     
     2      (1,11,5)              0.0000000     
     3      (1,5,5)               0.0000000     
 -----------------------------------------------




 CHD PACKAGE (CHD-FROM-IBOUND) FLOW RATES   PERIOD      8   STEP        8
 -----------------------------------------------
   NUMBER   CELLID                    RATE      
 -----------------------------------------------
     1      (1,1,1)              -5150.3128     
     2      (1,1,2)              -5150.3101     
     3      (1,1,3)              -5150.3098     
     4      (1,1,4)              -5150.3111     
     5      (1,1,5)              -5150.3125     
     6      (1,1,6)              -5150.3139     
     7      (1,1,7)              -5150.3156     
     8      (1,1,8)              -5150.3179     
     9      (1,1,9)              -5150.3202     
     10     (1,21,1)             -5150.3192     
     11     (1,21,2)             -5150.3160     
     12     (1,21,3)             -5150.3132     
     13     (1,21,4)             -5150.3114     
     14     (1,21,5)             -5150.3098     
     15     (1,21,6)             -5150.3081     
     16     (1,21,7)             -5150.3070     
     17     (1,21,8)             -5150.3088     
     18     (1,21,9)             -5150.3141     
 -----------------------------------------------




 HEAD WILL BE SAVED ON UNIT 1016 AT END OF TIME STEP    8, STRESS PERIOD    8


  VOLUME BUDGET FOR ENTIRE MODEL AT END OF TIME STEP    8, STRESS PERIOD   8
  ---------------------------------------------------------------------------------------------------

     CUMULATIVE VOLUME      L**3       RATES FOR THIS TIME STEP      L**3/T          PACKAGE NAME    
     ------------------                 ------------------------                     ----------------

           IN:                                      IN:
           ---                                      ---
              STO-SS =     2775655.2069                STO-SS =       81597.3900     STORAGE                          
              STO-SY =       89059.8576                STO-SY =        2558.2437     STORAGE                          
                 WEL =           0.0000                   WEL =           0.0000     WEL-1                            
                RCHA =    64475550.0000                  RCHA =        8550.0000     RCH-1                            
                 CHD =           0.0000                   CHD =           0.0000     CHD-FROM-IBOUND                  

            TOTAL IN =    67340265.0644              TOTAL IN =       92705.6336

          OUT:                                     OUT:
          ----                                     ----
              STO-SS =    46536659.9393                STO-SS =           0.0000     STORAGE                          
              STO-SY =     1425275.1378                STO-SY =           0.0000     STORAGE                          
                 WEL =           0.0000                   WEL =           0.0000     WEL-1                            
                RCHA =           0.0000                  RCHA =           0.0000     RCH-1                            
                 CHD =    19378330.4815                   CHD =       92705.6315     CHD-FROM-IBOUND                  

           TOTAL OUT =    67340265.5585             TOTAL OUT =       92705.6315

            IN - OUT =          -0.4941              IN - OUT =       2.1545E-03

 PERCENT DISCREPANCY =          -0.00     PERCENT DISCREPANCY =           0.00




         TIME SUMMARY AT END OF TIME STEP    8 IN STRESS PERIOD    8
                    SECONDS     MINUTES      HOURS       DAYS        YEARS
                    -----------------------------------------------------------
   TIME STEP LENGTH 5.81680E+05  9694.7      161.58      6.7324     1.84323E-02
 STRESS PERIOD TIME 2.67840E+06  44640.      744.00      31.000     8.48734E-02
         TOTAL TIME 1.84032E+07 3.06720E+05  5112.0      213.00     0.58316    


end timestep


start timestep kper="9" kstp="1" mode="normal"


 OUTPUT CONTROL FOR STRESS PERIOD 9 IS REPEATED USING SETTINGS FROM A PREVIOUS STRESS PERIOD.


 STRESS PERIOD 9 IS TRANSIENT


 REUSING WELS FROM LAST STRESS PERIOD

 REUSING RCHS FROM LAST STRESS PERIOD

 REUSING CHDS FROM LAST STRESS PERIOD
 UBDSV1 SAVING     FLOW-JA-FACE ON UNIT   1015 AT TIME STEP      1, STRESS PERIOD      9
 UBDSV06 SAVING              WEL IN MODEL MUMODEL          PACKAGE MUMODEL         CONNECTED TO MODEL MUMODEL          PACKAGE WEL-1            ON UNIT   1015 AT TIME STEP      1, STRESS PERIOD      9
 UBDSV06 SAVING             RCHA IN MODEL MUMODEL          PACKAGE MUMODEL         CONNECTED TO MODEL MUMODEL          PACKAGE RCH-1            ON UNIT   1015 AT TIME STEP      1, STRESS PERIOD      9

 WEL PACKAGE (WEL-1) FLOW RATES   PERIOD      9   STEP        1
 -----------------------------------------------
   NUMBER   CELLID                    RATE      
 -----------------------------------------------
     1      (1,5,5)               0.0000000     
     2      (1,11,5)              0.0000000     
     3      (1,5,5)               0.0000000     
 -----------------------------------------------




 CHD PACKAGE (CHD-FROM-IBOUND) FLOW RATES   PERIOD      9   STEP        1
 -----------------------------------------------
   NUMBER   CELLID                    RATE      
 -----------------------------------------------
     1      (1,1,1)              -5147.6799     
     2      (1,1,2)              -5147.6773     
     3      (1,1,3)              -5147.6770     
     4      (1,1,4)              -5147.6782     
     5      (1,1,5)              -5147.6797     
     6      (1,1,6)              -5147.6811     
     7      (1,1,7)              -5147.6827     
     8      (1,1,8)              -5147.6851     
     9      (1,1,9)              -5147.6873     
     10     (1,21,1)             -5147.6863     
     11     (1,21,2)             -5147.6831     
     12     (1,21,3)             -5147.6803     
     13     (1,21,4)             -5147.6786     
     14     (1,21,5)             -5147.6770     
     15     (1,21,6)             -5147.6752     
     16     (1,21,7)             -5147.6742     
     17     (1,21,8)             -5147.6760     
     18     (1,21,9)             -5147.6812     
 -----------------------------------------------




 HEAD WILL BE SAVED ON UNIT 1016 AT END OF TIME STEP    1, STRESS PERIOD    9


  VOLUME BUDGET FOR ENTIRE MODEL AT END OF TIME STEP    1, STRESS PERIOD   9
  ---------------------------------------------------------------------------------------------------

     CUMULATIVE VOLUME      L**3       RATES FOR THIS TIME STEP      L**3/T          PACKAGE NAME    
     ------------------                 ------------------------                     ----------------

           IN:                                      IN:
           ---                                      ---
              STO-SS =     2928882.0025                STO-SS =       81551.6740     STORAGE                          
              STO-SY =       93863.3697                STO-SY =        2556.5663     STORAGE                          
                 WEL =           0.0000                   WEL =           0.0000     WEL-1                            
                RCHA =    64491614.5274                  RCHA =        8550.0000     RCH-1                            
                 CHD =           0.0000                   CHD =           0.0000     CHD-FROM-IBOUND                  

            TOTAL IN =    67514359.8996              TOTAL IN =       92658.2403

          OUT:                                     OUT:
          ----                                     ----
              STO-SS =    46536659.9393                STO-SS =           0.0000     STORAGE                          
              STO-SY =     1425275.1378                STO-SY =           0.0000     STORAGE                          
                 WEL =           0.0000                   WEL =           0.0000     WEL-1                            
                RCHA =           0.0000                  RCHA =           0.0000     RCH-1                            
                 CHD =    19552425.3165                   CHD =       92658.2402     CHD-FROM-IBOUND                  

           TOTAL OUT =    67514360.3936             TOTAL OUT =       92658.2402

            IN - OUT =          -0.4940              IN - OUT =       5.2100E-05

 PERCENT DISCREPANCY =          -0.00     PERCENT DISCREPANCY =           0.00




         TIME SUMMARY AT END OF TIME STEP    1 IN STRESS PERIOD    9
                    SECONDS     MINUTES      HOURS       DAYS        YEARS
                    -----------------------------------------------------------
   TIME STEP LENGTH 1.62336E+05  2705.6      45.093      1.8789     5.14413E-03
 STRESS PERIOD TIME 1.62336E+05  2705.6      45.093      1.8789     5.14413E-03
         TOTAL TIME 1.85655E+07 3.09426E+05  5157.1      214.88     0.58831    


end timestep


start timestep kper="9" kstp="2" mode="normal"

 UBDSV1 SAVING     FLOW-JA-FACE ON UNIT   1015 AT TIME STEP      2, STRESS PERIOD      9
 UBDSV06 SAVING              WEL IN MODEL MUMODEL          PACKAGE MUMODEL         CONNECTED TO MODEL MUMODEL          PACKAGE WEL-1            ON UNIT   1015 AT TIME STEP      2, STRESS PERIOD      9
 UBDSV06 SAVING             RCHA IN MODEL MUMODEL          PACKAGE MUMODEL         CONNECTED TO MODEL MUMODEL          PACKAGE RCH-1            ON UNIT   1015 AT TIME STEP      2, STRESS PERIOD      9

 WEL PACKAGE (WEL-1) FLOW RATES   PERIOD      9   STEP        2
 -----------------------------------------------
   NUMBER   CELLID                    RATE      
 -----------------------------------------------
     1      (1,5,5)               0.0000000     
     2      (1,11,5)              0.0000000     
     3      (1,5,5)               0.0000000     
 -----------------------------------------------




 CHD PACKAGE (CHD-FROM-IBOUND) FLOW RATES   PERIOD      9   STEP        2
 -----------------------------------------------
   NUMBER   CELLID                    RATE      
 -----------------------------------------------
     1      (1,1,1)              -5144.5380     
     2      (1,1,2)              -5144.5353     
     3      (1,1,3)              -5144.5350     
     4      (1,1,4)              -5144.5363     
     5      (1,1,5)              -5144.5377     
     6      (1,1,6)              -5144.5391     
     7      (1,1,7)              -5144.5408     
     8      (1,1,8)              -5144.5431     
     9      (1,1,9)              -5144.5453     
     10     (1,21,1)             -5144.5443     
     11     (1,21,2)             -5144.5411     
     12     (1,21,3)             -5144.5383     
     13     (1,21,4)             -5144.5366     
     14     (1,21,5)             -5144.5350     
     15     (1,21,6)             -5144.5333     
     16     (1,21,7)             -5144.5322     
     17     (1,21,8)             -5144.5341     
     18     (1,21,9)             -5144.5392     
 -----------------------------------------------




 HEAD WILL BE SAVED ON UNIT 1016 AT END OF TIME STEP    2, STRESS PERIOD    9


  VOLUME BUDGET FOR ENTIRE MODEL AT END OF TIME STEP    2, STRESS PERIOD   9
  ---------------------------------------------------------------------------------------------------

     CUMULATIVE VOLUME      L**3       RATES FOR THIS TIME STEP      L**3/T          PACKAGE NAME    
     ------------------                 ------------------------                     ----------------

           IN:                                      IN:
           ---                                      ---
              STO-SS =     3112631.5490                STO-SS =       81497.2944     STORAGE                          
              STO-SY =       99622.6786                STO-SY =        2554.3905     STORAGE                          
                 WEL =           0.0000                   WEL =           0.0000     WEL-1                            
                RCHA =    64510891.9603                  RCHA =        8550.0000     RCH-1                            
                 CHD =           0.0000                   CHD =           0.0000     CHD-FROM-IBOUND                  

            TOTAL IN =    67723146.1880              TOTAL IN =       92601.6849

          OUT:                                     OUT:
          ----                                     ----
              STO-SS =    46536659.9393                STO-SS =           0.0000     STORAGE                          
              STO-SY =     1425275.1378                STO-SY =           0.0000     STORAGE                          
                 WEL =           0.0000                   WEL =           0.0000     WEL-1                            
                RCHA =           0.0000                  RCHA =           0.0000     RCH-1                            
                 CHD =    19761211.6047                   CHD =       92601.6848     CHD-FROM-IBOUND                  

           TOTAL OUT =    67723146.6818             TOTAL OUT =       92601.6848

            IN - OUT =          -0.4938              IN - OUT =       8.1488E-05

 PERCENT DISCREPANCY =          -0.00     PERCENT DISCREPANCY =           0.00




         TIME SUMMARY AT END OF TIME STEP    2 IN STRESS PERIOD    9
                    SECONDS     MINUTES      HOURS       DAYS        YEARS
                    -----------------------------------------------------------
   TIME STEP LENGTH 1.94804E+05  3246.7      54.112      2.2547     6.17295E-03
 STRESS PERIOD TIME 3.57140E+05  5952.3      99.206      4.1336     1.13171E-02
         TOTAL TIME 1.87603E+07 3.12672E+05  5211.2      217.13     0.59448    


end timestep


start timestep kper="9" kstp="3" mode="normal"

 UBDSV1 SAVING     FLOW-JA-FACE ON UNIT   1015 AT TIME STEP      3, STRESS PERIOD      9
 UBDSV06 SAVING              WEL IN MODEL MUMODEL          PACKAGE MUMODEL         CONNECTED TO MODEL MUMODEL          PACKAGE WEL-1            ON UNIT   1015 AT TIME STEP      3, STRESS PERIOD      9
 UBDSV06 SAVING             RCHA IN MODEL MUMODEL          PACKAGE MUMODEL         CONNECTED TO MODEL MUMODEL          PACKAGE RCH-1            ON UNIT   1015 AT TIME STEP      3, STRESS PERIOD      9

 WEL PACKAGE (WEL-1) FLOW RATES   PERIOD      9   STEP        3
 -----------------------------------------------
   NUMBER   CELLID                    RATE      
 -----------------------------------------------
     1      (1,5,5)               0.0000000     
     2      (1,11,5)              0.0000000     
     3      (1,5,5)               0.0000000     
 -----------------------------------------------




 CHD PACKAGE (CHD-FROM-IBOUND) FLOW RATES   PERIOD      9   STEP        3
 -----------------------------------------------
   NUMBER   CELLID                    RATE      
 -----------------------------------------------
     1      (1,1,1)              -5140.7917     
     2      (1,1,2)              -5140.7891     
     3      (1,1,3)              -5140.7888     
     4      (1,1,4)              -5140.7900     
     5      (1,1,5)              -5140.7915     
     6      (1,1,6)              -5140.7928     
     7      (1,1,7)              -5140.7945     
     8      (1,1,8)              -5140.7968     
     9      (1,1,9)              -5140.7991     
     10     (1,21,1)             -5140.7980     
     11     (1,21,2)             -5140.7948     
     12     (1,21,3)             -5140.7921     
     13     (1,21,4)             -5140.7904     
     14     (1,21,5)             -5140.7888     
     15     (1,21,6)             -5140.7870     
     16     (1,21,7)             -5140.7860     
     17     (1,21,8)             -5140.7879     
     18     (1,21,9)             -5140.7930     
 -----------------------------------------------




 HEAD WILL BE SAVED ON UNIT 1016 AT END OF TIME STEP    3, STRESS PERIOD    9


  VOLUME BUDGET FOR ENTIRE MODEL AT END OF TIME STEP    3, STRESS PERIOD   9
  ---------------------------------------------------------------------------------------------------

     CUMULATIVE VOLUME      L**3       RATES FOR THIS TIME STEP      L**3/T          PACKAGE NAME    
     ------------------                 ------------------------                     ----------------

           IN:                                      IN:
           ---                                      ---
              STO-SS =     3332955.5751                STO-SS =       81432.4550     STORAGE                          
              STO-SY =      106526.8342                STO-SY =        2551.7977     STORAGE                          
                 WEL =           0.0000                   WEL =           0.0000     WEL-1                            
                RCHA =    64534024.8798                  RCHA =        8550.0000     RCH-1                            
                 CHD =           0.0000                   CHD =           0.0000     CHD-FROM-IBOUND                  

            TOTAL IN =    67973507.2890              TOTAL IN =       92534.2526

          OUT:                                     OUT:
          ----                                     ----
              STO-SS =    46536659.9393                STO-SS =           0.0000     STORAGE                          
              STO-SY =     1425275.1378                STO-SY =           0.0000     STORAGE                          
                 WEL =           0.0000                   WEL =           0.0000     WEL-1                            
                RCHA =           0.0000                  RCHA =           0.0000     RCH-1                            
                 CHD =    20011572.7054                   CHD =       92534.2525     CHD-FROM-IBOUND                  

           TOTAL OUT =    67973507.7825             TOTAL OUT =       92534.2525

            IN - OUT =          -0.4934              IN - OUT =       1.4050E-04

 PERCENT DISCREPANCY =          -0.00     PERCENT DISCREPANCY =           0.00




         TIME SUMMARY AT END OF TIME STEP    3 IN STRESS PERIOD    9
                    SECONDS     MINUTES      HOURS       DAYS        YEARS
                    -----------------------------------------------------------
   TIME STEP LENGTH 2.33764E+05  3896.1      64.935      2.7056     7.40754E-03
 STRESS PERIOD TIME 5.90904E+05  9848.4      164.14      6.8392     1.87246E-02
         TOTAL TIME 1.89941E+07 3.16568E+05  5276.1      219.84     0.60189    


end timestep


start timestep kper="9" kstp="4" mode="normal"

 UBDSV1 SAVING     FLOW-JA-FACE ON UNIT   1015 AT TIME STEP      4, STRESS PERIOD      9
 UBDSV06 SAVING              WEL IN MODEL MUMODEL          PACKAGE MUMODEL         CONNECTED TO MODEL MUMODEL          PACKAGE WEL-1            ON UNIT   1015 AT TIME STEP      4, STRESS PERIOD      9
 UBDSV06 SAVING             RCHA IN MODEL MUMODEL          PACKAGE MUMODEL         CONNECTED TO MODEL MUMODEL          PACKAGE RCH-1            ON UNIT   1015 AT TIME STEP      4, STRESS PERIOD      9

 WEL PACKAGE (WEL-1) FLOW RATES   PERIOD      9   STEP        4
 -----------------------------------------------
   NUMBER   CELLID                    RATE      
 -----------------------------------------------
     1      (1,5,5)               0.0000000     
     2      (1,11,5)              0.0000000     
     3      (1,5,5)               0.0000000     
 -----------------------------------------------




 CHD PACKAGE (CHD-FROM-IBOUND) FLOW RATES   PERIOD      9   STEP        4
 -----------------------------------------------
   NUMBER   CELLID                    RATE      
 -----------------------------------------------
     1      (1,1,1)              -5136.3305     
     2      (1,1,2)              -5136.3280     
     3      (1,1,3)              -5136.3276     
     4      (1,1,4)              -5136.3289     
     5      (1,1,5)              -5136.3303     
     6      (1,1,6)              -5136.3316     
     7      (1,1,7)              -5136.3333     
     8      (1,1,8)              -5136.3356     
     9      (1,1,9)              -5136.3378     
     10     (1,21,1)             -5136.3368     
     11     (1,21,2)             -5136.3336     
     12     (1,21,3)             -5136.3309     
     13     (1,21,4)             -5136.3292     
     14     (1,21,5)             -5136.3276     
     15     (1,21,6)             -5136.3259     
     16     (1,21,7)             -5136.3249     
     17     (1,21,8)             -5136.3267     
     18     (1,21,9)             -5136.3318     
 -----------------------------------------------




 HEAD WILL BE SAVED ON UNIT 1016 AT END OF TIME STEP    4, STRESS PERIOD    9


  VOLUME BUDGET FOR ENTIRE MODEL AT END OF TIME STEP    4, STRESS PERIOD   9
  ---------------------------------------------------------------------------------------------------

     CUMULATIVE VOLUME      L**3       RATES FOR THIS TIME STEP      L**3/T          PACKAGE NAME    
     ------------------                 ------------------------                     ----------------

           IN:                                      IN:
           ---                                      ---
              STO-SS =     3597093.7080                STO-SS =       81355.2392     STORAGE                          
              STO-SY =      114801.8026                STO-SY =        2548.7120     STORAGE                          
                 WEL =           0.0000                   WEL =           0.0000     WEL-1                            
                RCHA =    64561784.3831                  RCHA =        8550.0000     RCH-1                            
                 CHD =           0.0000                   CHD =           0.0000     CHD-FROM-IBOUND                  

            TOTAL IN =    68273679.8938              TOTAL IN =       92453.9512

          OUT:                                     OUT:
          ----                                     ----
              STO-SS =    46536659.9393                STO-SS =           0.0000     STORAGE                          
              STO-SY =     1425275.1378                STO-SY =           0.0000     STORAGE                          
                 WEL =           0.0000                   WEL =           0.0000     WEL-1                            
                RCHA =           0.0000                  RCHA =           0.0000     RCH-1                            
                 CHD =    20311745.3093                   CHD =       92453.9510     CHD-FROM-IBOUND                  

           TOTAL OUT =    68273680.3864             TOTAL OUT =       92453.9510

            IN - OUT =          -0.4926              IN - OUT =       2.4303E-04

 PERCENT DISCREPANCY =          -0.00     PERCENT DISCREPANCY =           0.00




         TIME SUMMARY AT END OF TIME STEP    4 IN STRESS PERIOD    9
                    SECONDS     MINUTES      HOURS       DAYS        YEARS
                    -----------------------------------------------------------
   TIME STEP LENGTH 2.80517E+05  4675.3      77.921      3.2467     8.88905E-03
 STRESS PERIOD TIME 8.71421E+05  14524.      242.06      10.086     2.76137E-02
         TOTAL TIME 1.92746E+07 3.21244E+05  5354.1      223.09     0.61078    


end timestep


start timestep kper="9" kstp="5" mode="normal"

 UBDSV1 SAVING     FLOW-JA-FACE ON UNIT   1015 AT TIME STEP      5, STRESS PERIOD      9
 UBDSV06 SAVING              WEL IN MODEL MUMODEL          PACKAGE MUMODEL         CONNECTED TO MODEL MUMODEL          PACKAGE WEL-1            ON UNIT   1015 AT TIME STEP      5, STRESS PERIOD      9
 UBDSV06 SAVING             RCHA IN MODEL MUMODEL          PACKAGE MUMODEL         CONNECTED TO MODEL MUMODEL          PACKAGE RCH-1            ON UNIT   1015 AT TIME STEP      5, STRESS PERIOD      9

 WEL PACKAGE (WEL-1) FLOW RATES   PERIOD      9   STEP        5
 -----------------------------------------------
   NUMBER   CELLID                    RATE      
 -----------------------------------------------
     1      (1,5,5)               0.0000000     
     2      (1,11,5)              0.0000000     
     3      (1,5,5)               0.0000000     
 -----------------------------------------------




 CHD PACKAGE (CHD-FROM-IBOUND) FLOW RATES   PERIOD      9   STEP        5
 -----------------------------------------------
   NUMBER   CELLID                    RATE      
 -----------------------------------------------
     1      (1,1,1)              -5131.0257     
     2      (1,1,2)              -5131.0232     
     3      (1,1,3)              -5131.0229     
     4      (1,1,4)              -5131.0241     
     5      (1,1,5)              -5131.0255     
     6      (1,1,6)              -5131.0268     
     7      (1,1,7)              -5131.0285     
     8      (1,1,8)              -5131.0308     
     9      (1,1,9)              -5131.0330     
     10     (1,21,1)             -5131.0319     
     11     (1,21,2)             -5131.0288     
     12     (1,21,3)             -5131.0261     
     13     (1,21,4)             -5131.0244     
     14     (1,21,5)             -5131.0228     
     15     (1,21,6)             -5131.0211     
     16     (1,21,7)             -5131.0201     
     17     (1,21,8)             -5131.0220     
     18     (1,21,9)             -5131.0270     
 -----------------------------------------------




 HEAD WILL BE SAVED ON UNIT 1016 AT END OF TIME STEP    5, STRESS PERIOD    9


  VOLUME BUDGET FOR ENTIRE MODEL AT END OF TIME STEP    5, STRESS PERIOD   9
  ---------------------------------------------------------------------------------------------------

     CUMULATIVE VOLUME      L**3       RATES FOR THIS TIME STEP      L**3/T          PACKAGE NAME    
     ------------------                 ------------------------                     ----------------

           IN:                                      IN:
           ---                                      ---
              STO-SS =     3913701.7298                STO-SS =       81263.4191     STORAGE                          
              STO-SY =      124717.4808                STO-SY =        2545.0458     STORAGE                          
                 WEL =           0.0000                   WEL =           0.0000     WEL-1                            
                RCHA =    64595095.7872                  RCHA =        8550.0000     RCH-1                            
                 CHD =           0.0000                   CHD =           0.0000     CHD-FROM-IBOUND                  

            TOTAL IN =    68633514.9978              TOTAL IN =       92358.4649

          OUT:                                     OUT:
          ----                                     ----
              STO-SS =    46536659.9393                STO-SS =           0.0000     STORAGE                          
              STO-SY =     1425275.1378                STO-SY =           0.0000     STORAGE                          
                 WEL =           0.0000                   WEL =           0.0000     WEL-1                            
                RCHA =           0.0000                  RCHA =           0.0000     RCH-1                            
                 CHD =    20671580.4118                   CHD =       92358.4645     CHD-FROM-IBOUND                  

           TOTAL OUT =    68633515.4889             TOTAL OUT =       92358.4645

            IN - OUT =          -0.4910              IN - OUT =       4.0822E-04

 PERCENT DISCREPANCY =          -0.00     PERCENT DISCREPANCY =           0.00




         TIME SUMMARY AT END OF TIME STEP    5 IN STRESS PERIOD    9
                    SECONDS     MINUTES      HOURS       DAYS        YEARS
                    -----------------------------------------------------------
   TIME STEP LENGTH 3.36621E+05  5610.3      93.506      3.8961     1.06669E-02
 STRESS PERIOD TIME 1.20804E+06  20134.      335.57      13.982     3.82805E-02
         TOTAL TIME 1.96112E+07 3.26854E+05  5447.6      226.98     0.62144    


end timestep


start timestep kper="9" kstp="6" mode="normal"

 UBDSV1 SAVING     FLOW-JA-FACE ON UNIT   1015 AT TIME STEP      6, STRESS PERIOD      9
 UBDSV06 SAVING              WEL IN MODEL MUMODEL          PACKAGE MUMODEL         CONNECTED TO MODEL MUMODEL          PACKAGE WEL-1            ON UNIT   1015 AT TIME STEP      6, STRESS PERIOD      9
 UBDSV06 SAVING             RCHA IN MODEL MUMODEL          PACKAGE MUMODEL         CONNECTED TO MODEL MUMODEL          PACKAGE RCH-1            ON UNIT   1015 AT TIME STEP      6, STRESS PERIOD      9

 WEL PACKAGE (WEL-1) FLOW RATES   PERIOD      9   STEP        6
 -----------------------------------------------
   NUMBER   CELLID                    RATE      
 -----------------------------------------------
     1      (1,5,5)               0.0000000     
     2      (1,11,5)              0.0000000     
     3      (1,5,5)               0.0000000     
 -----------------------------------------------




 CHD PACKAGE (CHD-FROM-IBOUND) FLOW RATES   PERIOD      9   STEP        6
 -----------------------------------------------
   NUMBER   CELLID                    RATE      
 -----------------------------------------------
     1      (1,1,1)              -5124.7287     
     2      (1,1,2)              -5124.7262     
     3      (1,1,3)              -5124.7259     
     4      (1,1,4)              -5124.7270     
     5      (1,1,5)              -5124.7284     
     6      (1,1,6)              -5124.7298     
     7      (1,1,7)              -5124.7314     
     8      (1,1,8)              -5124.7337     
     9      (1,1,9)              -5124.7359     
     10     (1,21,1)             -5124.7348     
     11     (1,21,2)             -5124.7317     
     12     (1,21,3)             -5124.7290     
     13     (1,21,4)             -5124.7273     
     14     (1,21,5)             -5124.7258     
     15     (1,21,6)             -5124.7241     
     16     (1,21,7)             -5124.7231     
     17     (1,21,8)             -5124.7250     
     18     (1,21,9)             -5124.7299     
 -----------------------------------------------




 HEAD WILL BE SAVED ON UNIT 1016 AT END OF TIME STEP    6, STRESS PERIOD    9


  VOLUME BUDGET FOR ENTIRE MODEL AT END OF TIME STEP    6, STRESS PERIOD   9
  ---------------------------------------------------------------------------------------------------

     CUMULATIVE VOLUME      L**3       RATES FOR THIS TIME STEP      L**3/T          PACKAGE NAME    
     ------------------                 ------------------------                     ----------------

           IN:                                      IN:
           ---                                      ---
              STO-SS =     4293121.7573                STO-SS =       81154.4207     STORAGE                          
              STO-SY =      136595.9672                STO-SY =        2540.6979     STORAGE                          
                 WEL =           0.0000                   WEL =           0.0000     WEL-1                            
                RCHA =    64635069.4720                  RCHA =        8550.0000     RCH-1                            
                 CHD =           0.0000                   CHD =           0.0000     CHD-FROM-IBOUND                  

            TOTAL IN =    69064787.1966              TOTAL IN =       92245.1186

          OUT:                                     OUT:
          ----                                     ----
              STO-SS =    46536659.9393                STO-SS =           0.0000     STORAGE                          
              STO-SY =     1425275.1378                STO-SY =           0.0000     STORAGE                          
                 WEL =           0.0000                   WEL =           0.0000     WEL-1                            
                RCHA =           0.0000                  RCHA =           0.0000     RCH-1                            
                 CHD =    21102852.6074                   CHD =       92245.1179     CHD-FROM-IBOUND                  

           TOTAL OUT =    69064787.6844             TOTAL OUT =       92245.1179

            IN - OUT =          -0.4879              IN - OUT =       6.8109E-04

 PERCENT DISCREPANCY =          -0.00     PERCENT DISCREPANCY =           0.00




         TIME SUMMARY AT END OF TIME STEP    6 IN STRESS PERIOD    9
                    SECONDS     MINUTES      HOURS       DAYS        YEARS
                    -----------------------------------------------------------
   TIME STEP LENGTH 4.03945E+05  6732.4      112.21      4.6753     1.28002E-02
 STRESS PERIOD TIME 1.61199E+06  26866.      447.77      18.657     5.10808E-02
         TOTAL TIME 2.00152E+07 3.33586E+05  5559.8      231.66     0.63424    


end timestep


start timestep kper="9" kstp="7" mode="normal"

 UBDSV1 SAVING     FLOW-JA-FACE ON UNIT   1015 AT TIME STEP      7, STRESS PERIOD      9
 UBDSV06 SAVING              WEL IN MODEL MUMODEL          PACKAGE MUMODEL         CONNECTED TO MODEL MUMODEL          PACKAGE WEL-1            ON UNIT   1015 AT TIME STEP      7, STRESS PERIOD      9
 UBDSV06 SAVING             RCHA IN MODEL MUMODEL          PACKAGE MUMODEL         CONNECTED TO MODEL MUMODEL          PACKAGE RCH-1            ON UNIT   1015 AT TIME STEP      7, STRESS PERIOD      9

 WEL PACKAGE (WEL-1) FLOW RATES   PERIOD      9   STEP        7
 -----------------------------------------------
   NUMBER   CELLID                    RATE      
 -----------------------------------------------
     1      (1,5,5)               0.0000000     
     2      (1,11,5)              0.0000000     
     3      (1,5,5)               0.0000000     
 -----------------------------------------------




 CHD PACKAGE (CHD-FROM-IBOUND) FLOW RATES   PERIOD      9   STEP        7
 -----------------------------------------------
   NUMBER   CELLID                    RATE      
 -----------------------------------------------
     1      (1,1,1)              -5117.2691     
     2      (1,1,2)              -5117.2667     
     3      (1,1,3)              -5117.2663     
     4      (1,1,4)              -5117.2674     
     5      (1,1,5)              -5117.2688     
     6      (1,1,6)              -5117.2702     
     7      (1,1,7)              -5117.2718     
     8      (1,1,8)              -5117.2741     
     9      (1,1,9)              -5117.2762     
     10     (1,21,1)             -5117.2751     
     11     (1,21,2)             -5117.2721     
     12     (1,21,3)             -5117.2694     
     13     (1,21,4)             -5117.2677     
     14     (1,21,5)             -5117.2662     
     15     (1,21,6)             -5117.2645     
     16     (1,21,7)             -5117.2636     
     17     (1,21,8)             -5117.2655     
     18     (1,21,9)             -5117.2703     
 -----------------------------------------------




 HEAD WILL BE SAVED ON UNIT 1016 AT END OF TIME STEP    7, STRESS PERIOD    9


  VOLUME BUDGET FOR ENTIRE MODEL AT END OF TIME STEP    7, STRESS PERIOD   9
  ---------------------------------------------------------------------------------------------------

     CUMULATIVE VOLUME      L**3       RATES FOR THIS TIME STEP      L**3/T          PACKAGE NAME    
     ------------------                 ------------------------                     ----------------

           IN:                                      IN:
           ---                                      ---
              STO-SS =     4747701.3390                STO-SS =       81025.2928     STORAGE                          
              STO-SY =      150821.2878                STO-SY =        2535.5533     STORAGE                          
                 WEL =           0.0000                   WEL =           0.0000     WEL-1                            
                RCHA =    64683037.8938                  RCHA =        8550.0000     RCH-1                            
                 CHD =           0.0000                   CHD =           0.0000     CHD-FROM-IBOUND                  

            TOTAL IN =    69581560.5207              TOTAL IN =       92110.8461

          OUT:                                     OUT:
          ----                                     ----
              STO-SS =    46536659.9393                STO-SS =           0.0000     STORAGE                          
              STO-SY =     1425275.1378                STO-SY =           0.0000     STORAGE                          
                 WEL =           0.0000                   WEL =           0.0000     WEL-1                            
                RCHA =           0.0000                  RCHA =           0.0000     RCH-1                            
                 CHD =    21619625.9251                   CHD =       92110.8450     CHD-FROM-IBOUND                  

           TOTAL OUT =    69581561.0022             TOTAL OUT =       92110.8450

            IN - OUT =          -0.4815              IN - OUT =       1.1316E-03

 PERCENT DISCREPANCY =          -0.00     PERCENT DISCREPANCY =           0.00




         TIME SUMMARY AT END OF TIME STEP    7 IN STRESS PERIOD    9
                    SECONDS     MINUTES      HOURS       DAYS        YEARS
                    -----------------------------------------------------------
   TIME STEP LENGTH 4.84734E+05  8078.9      134.65      5.6103     1.53603E-02
 STRESS PERIOD TIME 2.09672E+06  34945.      582.42      24.268     6.64410E-02
         TOTAL TIME 2.04999E+07 3.41665E+05  5694.4      237.27     0.64960    


end timestep


start timestep kper="9" kstp="8" mode="normal"

 UBDSV1 SAVING     FLOW-JA-FACE ON UNIT   1015 AT TIME STEP      8, STRESS PERIOD      9
 UBDSV06 SAVING              WEL IN MODEL MUMODEL          PACKAGE MUMODEL         CONNECTED TO MODEL MUMODEL          PACKAGE WEL-1            ON UNIT   1015 AT TIME STEP      8, STRESS PERIOD      9
 UBDSV06 SAVING             RCHA IN MODEL MUMODEL          PACKAGE MUMODEL         CONNECTED TO MODEL MUMODEL          PACKAGE RCH-1            ON UNIT   1015 AT TIME STEP      8, STRESS PERIOD      9

 WEL PACKAGE (WEL-1) FLOW RATES   PERIOD      9   STEP        8
 -----------------------------------------------
   NUMBER   CELLID                    RATE      
 -----------------------------------------------
     1      (1,5,5)               0.0000000     
     2      (1,11,5)              0.0000000     
     3      (1,5,5)               0.0000000     
 -----------------------------------------------




 CHD PACKAGE (CHD-FROM-IBOUND) FLOW RATES   PERIOD      9   STEP        8
 -----------------------------------------------
   NUMBER   CELLID                    RATE      
 -----------------------------------------------
     1      (1,1,1)              -5108.4534     
     2      (1,1,2)              -5108.4510     
     3      (1,1,3)              -5108.4506     
     4      (1,1,4)              -5108.4518     
     5      (1,1,5)              -5108.4531     
     6      (1,1,6)              -5108.4545     
     7      (1,1,7)              -5108.4561     
     8      (1,1,8)              -5108.4583     
     9      (1,1,9)              -5108.4605     
     10     (1,21,1)             -5108.4593     
     11     (1,21,2)             -5108.4563     
     12     (1,21,3)             -5108.4537     
     13     (1,21,4)             -5108.4520     
     14     (1,21,5)             -5108.4505     
     15     (1,21,6)             -5108.4488     
     16     (1,21,7)             -5108.4480     
     17     (1,21,8)             -5108.4499     
     18     (1,21,9)             -5108.4546     
 -----------------------------------------------




 HEAD WILL BE SAVED ON UNIT 1016 AT END OF TIME STEP    8, STRESS PERIOD    9


  VOLUME BUDGET FOR ENTIRE MODEL AT END OF TIME STEP    8, STRESS PERIOD   9
  ---------------------------------------------------------------------------------------------------

     CUMULATIVE VOLUME      L**3       RATES FOR THIS TIME STEP      L**3/T          PACKAGE NAME    
     ------------------                 ------------------------                     ----------------

           IN:                                      IN:
           ---                                      ---
              STO-SS =     5292169.4016                STO-SS =       80872.6825     STORAGE                          
              STO-SY =      167850.7968                STO-SY =        2529.4818     STORAGE                          
                 WEL =           0.0000                   WEL =           0.0000     WEL-1                            
                RCHA =    64740600.0000                  RCHA =        8550.0000     RCH-1                            
                 CHD =           0.0000                   CHD =           0.0000     CHD-FROM-IBOUND                  

            TOTAL IN =    70200620.1984              TOTAL IN =       91952.1643

          OUT:                                     OUT:
          ----                                     ----
              STO-SS =    46536659.9393                STO-SS =           0.0000     STORAGE                          
              STO-SY =     1425275.1378                STO-SY =           0.0000     STORAGE                          
                 WEL =           0.0000                   WEL =           0.0000     WEL-1                            
                RCHA =           0.0000                  RCHA =           0.0000     RCH-1                            
                 CHD =    22238685.5902                   CHD =       91952.1624     CHD-FROM-IBOUND                  

           TOTAL OUT =    70200620.6673             TOTAL OUT =       91952.1624

            IN - OUT =          -0.4689              IN - OUT =       1.8725E-03

 PERCENT DISCREPANCY =          -0.00     PERCENT DISCREPANCY =           0.00




         TIME SUMMARY AT END OF TIME STEP    8 IN STRESS PERIOD    9
                    SECONDS     MINUTES      HOURS       DAYS        YEARS
                    -----------------------------------------------------------
   TIME STEP LENGTH 5.81680E+05  9694.7      161.58      6.7324     1.84323E-02
 STRESS PERIOD TIME 2.67840E+06  44640.      744.00      31.000     8.48734E-02
         TOTAL TIME 2.10816E+07 3.51360E+05  5856.0      244.00     0.66804    


end timestep


start timestep kper="10" kstp="1" mode="normal"


 OUTPUT CONTROL FOR STRESS PERIOD 10 IS REPEATED USING SETTINGS FROM A PREVIOUS STRESS PERIOD.


 STRESS PERIOD 10 IS TRANSIENT


 REUSING WELS FROM LAST STRESS PERIOD

 REUSING RCHS FROM LAST STRESS PERIOD

 REUSING CHDS FROM LAST STRESS PERIOD
 UBDSV1 SAVING     FLOW-JA-FACE ON UNIT   1015 AT TIME STEP      1, STRESS PERIOD     10
 UBDSV06 SAVING              WEL IN MODEL MUMODEL          PACKAGE MUMODEL         CONNECTED TO MODEL MUMODEL          PACKAGE WEL-1            ON UNIT   1015 AT TIME STEP      1, STRESS PERIOD     10
 UBDSV06 SAVING             RCHA IN MODEL MUMODEL          PACKAGE MUMODEL         CONNECTED TO MODEL MUMODEL          PACKAGE RCH-1            ON UNIT   1015 AT TIME STEP      1, STRESS PERIOD     10

 WEL PACKAGE (WEL-1) FLOW RATES   PERIOD     10   STEP        1
 -----------------------------------------------
   NUMBER   CELLID                    RATE      
 -----------------------------------------------
     1      (1,5,5)               0.0000000     
     2      (1,11,5)              0.0000000     
     3      (1,5,5)               0.0000000     
 -----------------------------------------------




 CHD PACKAGE (CHD-FROM-IBOUND) FLOW RATES   PERIOD     10   STEP        1
 -----------------------------------------------
   NUMBER   CELLID                    RATE      
 -----------------------------------------------
     1      (1,1,1)              -5106.0818     
     2      (1,1,2)              -5106.0794     
     3      (1,1,3)              -5106.0790     
     4      (1,1,4)              -5106.0802     
     5      (1,1,5)              -5106.0815     
     6      (1,1,6)              -5106.0829     
     7      (1,1,7)              -5106.0845     
     8      (1,1,8)              -5106.0867     
     9      (1,1,9)              -5106.0888     
     10     (1,21,1)             -5106.0876     
     11     (1,21,2)             -5106.0847     
     12     (1,21,3)             -5106.0821     
     13     (1,21,4)             -5106.0804     
     14     (1,21,5)             -5106.0789     
     15     (1,21,6)             -5106.0773     
     16     (1,21,7)             -5106.0764     
     17     (1,21,8)             -5106.0783     
     18     (1,21,9)             -5106.0830     
 -----------------------------------------------




 HEAD WILL BE SAVED ON UNIT 1016 AT END OF TIME STEP    1, STRESS PERIOD   10


  VOLUME BUDGET FOR ENTIRE MODEL AT END OF TIME STEP    1, STRESS PERIOD  10
  ---------------------------------------------------------------------------------------------------

     CUMULATIVE VOLUME      L**3       RATES FOR THIS TIME STEP      L**3/T          PACKAGE NAME    
     ------------------                 ------------------------                     ----------------

           IN:                                      IN:
           ---                                      ---
              STO-SS =     5439143.8891                STO-SS =       80831.4844     STORAGE                          
              STO-SY =      172447.3956                STO-SY =        2527.9891     STORAGE                          
                 WEL =           0.0000                   WEL =           0.0000     WEL-1                            
                RCHA =    64756146.3168                  RCHA =        8550.0000     RCH-1                            
                 CHD =           0.0000                   CHD =           0.0000     CHD-FROM-IBOUND                  

            TOTAL IN =    70367737.6015              TOTAL IN =       91909.4735

          OUT:                                     OUT:
          ----                                     ----
              STO-SS =    46536659.9393                STO-SS =           0.0000     STORAGE                          
              STO-SY =     1425275.1378                STO-SY =           0.0000     STORAGE                          
                 WEL =           0.0000                   WEL =           0.0000     WEL-1                            
                RCHA =           0.0000                  RCHA =           0.0000     RCH-1                            
                 CHD =    22405802.9932                   CHD =       91909.4735     CHD-FROM-IBOUND                  

           TOTAL OUT =    70367738.0703             TOTAL OUT =       91909.4735

            IN - OUT =          -0.4688              IN - OUT =       4.2937E-05

 PERCENT DISCREPANCY =          -0.00     PERCENT DISCREPANCY =           0.00




         TIME SUMMARY AT END OF TIME STEP    1 IN STRESS PERIOD   10
                    SECONDS     MINUTES      HOURS       DAYS        YEARS
                    -----------------------------------------------------------
   TIME STEP LENGTH 1.57100E+05  2618.3      43.639      1.8183     4.97819E-03
 STRESS PERIOD TIME 1.57100E+05  2618.3      43.639      1.8183     4.97819E-03
         TOTAL TIME 2.12387E+07 3.53978E+05  5899.6      245.82     0.67301    


end timestep


start timestep kper="10" kstp="2" mode="normal"

 UBDSV1 SAVING     FLOW-JA-FACE ON UNIT   1015 AT TIME STEP      2, STRESS PERIOD     10
 UBDSV06 SAVING              WEL IN MODEL MUMODEL          PACKAGE MUMODEL         CONNECTED TO MODEL MUMODEL          PACKAGE WEL-1            ON UNIT   1015 AT TIME STEP      2, STRESS PERIOD     10
 UBDSV06 SAVING             RCHA IN MODEL MUMODEL          PACKAGE MUMODEL         CONNECTED TO MODEL MUMODEL          PACKAGE RCH-1            ON UNIT   1015 AT TIME STEP      2, STRESS PERIOD     10

 WEL PACKAGE (WEL-1) FLOW RATES   PERIOD     10   STEP        2
 -----------------------------------------------
   NUMBER   CELLID                    RATE      
 -----------------------------------------------
     1      (1,5,5)               0.0000000     
     2      (1,11,5)              0.0000000     
     3      (1,5,5)               0.0000000     
 -----------------------------------------------




 CHD PACKAGE (CHD-FROM-IBOUND) FLOW RATES   PERIOD     10   STEP        2
 -----------------------------------------------
   NUMBER   CELLID                    RATE      
 -----------------------------------------------
     1      (1,1,1)              -5103.2504     
     2      (1,1,2)              -5103.2481     
     3      (1,1,3)              -5103.2477     
     4      (1,1,4)              -5103.2488     
     5      (1,1,5)              -5103.2501     
     6      (1,1,6)              -5103.2515     
     7      (1,1,7)              -5103.2531     
     8      (1,1,8)              -5103.2553     
     9      (1,1,9)              -5103.2574     
     10     (1,21,1)             -5103.2562     
     11     (1,21,2)             -5103.2533     
     12     (1,21,3)             -5103.2507     
     13     (1,21,4)             -5103.2490     
     14     (1,21,5)             -5103.2475     
     15     (1,21,6)             -5103.2459     
     16     (1,21,7)             -5103.2451     
     17     (1,21,8)             -5103.2470     
     18     (1,21,9)             -5103.2516     
 -----------------------------------------------




 HEAD WILL BE SAVED ON UNIT 1016 AT END OF TIME STEP    2, STRESS PERIOD   10


  VOLUME BUDGET FOR ENTIRE MODEL AT END OF TIME STEP    2, STRESS PERIOD  10
  ---------------------------------------------------------------------------------------------------

     CUMULATIVE VOLUME      L**3       RATES FOR THIS TIME STEP      L**3/T          PACKAGE NAME    
     ------------------                 ------------------------                     ----------------

           IN:                                      IN:
           ---                                      ---
              STO-SS =     5615406.3252                STO-SS =       80782.4689     STORAGE                          
              STO-SY =      177959.0610                STO-SY =        2526.0399     STORAGE                          
                 WEL =           0.0000                   WEL =           0.0000     WEL-1                            
                RCHA =    64774801.8971                  RCHA =        8550.0000     RCH-1                            
                 CHD =           0.0000                   CHD =           0.0000     CHD-FROM-IBOUND                  

            TOTAL IN =    70568167.2833              TOTAL IN =       91858.5088

          OUT:                                     OUT:
          ----                                     ----
              STO-SS =    46536659.9393                STO-SS =           0.0000     STORAGE                          
              STO-SY =     1425275.1378                STO-SY =           0.0000     STORAGE                          
                 WEL =           0.0000                   WEL =           0.0000     WEL-1                            
                RCHA =           0.0000                  RCHA =           0.0000     RCH-1                            
                 CHD =    22606232.6749                   CHD =       91858.5087     CHD-FROM-IBOUND                  

           TOTAL OUT =    70568167.7520             TOTAL OUT =       91858.5087

            IN - OUT =          -0.4687              IN - OUT =       7.0409E-05

 PERCENT DISCREPANCY =          -0.00     PERCENT DISCREPANCY =           0.00




         TIME SUMMARY AT END OF TIME STEP    2 IN STRESS PERIOD   10
                    SECONDS     MINUTES      HOURS       DAYS        YEARS
                    -----------------------------------------------------------
   TIME STEP LENGTH 1.88520E+05  3142.0      52.367      2.1819     5.97382E-03
 STRESS PERIOD TIME 3.45619E+05  5760.3      96.005      4.0002     1.09520E-02
         TOTAL TIME 2.14272E+07 3.57120E+05  5952.0      248.00     0.67899    


end timestep


start timestep kper="10" kstp="3" mode="normal"

 UBDSV1 SAVING     FLOW-JA-FACE ON UNIT   1015 AT TIME STEP      3, STRESS PERIOD     10
 UBDSV06 SAVING              WEL IN MODEL MUMODEL          PACKAGE MUMODEL         CONNECTED TO MODEL MUMODEL          PACKAGE WEL-1            ON UNIT   1015 AT TIME STEP      3, STRESS PERIOD     10
 UBDSV06 SAVING             RCHA IN MODEL MUMODEL          PACKAGE MUMODEL         CONNECTED TO MODEL MUMODEL          PACKAGE RCH-1            ON UNIT   1015 AT TIME STEP      3, STRESS PERIOD     10

 WEL PACKAGE (WEL-1) FLOW RATES   PERIOD     10   STEP        3
 -----------------------------------------------
   NUMBER   CELLID                    RATE      
 -----------------------------------------------
     1      (1,5,5)               0.0000000     
     2      (1,11,5)              0.0000000     
     3      (1,5,5)               0.0000000     
 -----------------------------------------------




 CHD PACKAGE (CHD-FROM-IBOUND) FLOW RATES   PERIOD     10   STEP        3
 -----------------------------------------------
   NUMBER   CELLID                    RATE      
 -----------------------------------------------
     1      (1,1,1)              -5099.8728     
     2      (1,1,2)              -5099.8705     
     3      (1,1,3)              -5099.8701     
     4      (1,1,4)              -5099.8712     
     5      (1,1,5)              -5099.8725     
     6      (1,1,6)              -5099.8738     
     7      (1,1,7)              -5099.8755     
     8      (1,1,8)              -5099.8777     
     9      (1,1,9)              -5099.8798     
     10     (1,21,1)             -5099.8786     
     11     (1,21,2)             -5099.8756     
     12     (1,21,3)             -5099.8730     
     13     (1,21,4)             -5099.8714     
     14     (1,21,5)             -5099.8699     
     15     (1,21,6)             -5099.8683     
     16     (1,21,7)             -5099.8675     
     17     (1,21,8)             -5099.8694     
     18     (1,21,9)             -5099.8740     
 -----------------------------------------------




 HEAD WILL BE SAVED ON UNIT 1016 AT END OF TIME STEP    3, STRESS PERIOD   10


  VOLUME BUDGET FOR ENTIRE MODEL AT END OF TIME STEP    3, STRESS PERIOD  10
  ---------------------------------------------------------------------------------------------------

     CUMULATIVE VOLUME      L**3       RATES FOR THIS TIME STEP      L**3/T          PACKAGE NAME    
     ------------------                 ------------------------                     ----------------

           IN:                                      IN:
           ---                                      ---
              STO-SS =     5826768.1466                STO-SS =       80723.9957     STORAGE                          
              STO-SY =      184566.9745                STO-SY =        2523.7159     STORAGE                          
                 WEL =           0.0000                   WEL =           0.0000     WEL-1                            
                RCHA =    64797188.5933                  RCHA =        8550.0000     RCH-1                            
                 CHD =           0.0000                   CHD =           0.0000     CHD-FROM-IBOUND                  

            TOTAL IN =    70808523.7145              TOTAL IN =       91797.7116

          OUT:                                     OUT:
          ----                                     ----
              STO-SS =    46536659.9393                STO-SS =           0.0000     STORAGE                          
              STO-SY =     1425275.1378                STO-SY =           0.0000     STORAGE                          
                 WEL =           0.0000                   WEL =           0.0000     WEL-1                            
                RCHA =           0.0000                  RCHA =           0.0000     RCH-1                            
                 CHD =    22846589.1058                   CHD =       91797.7115     CHD-FROM-IBOUND                  

           TOTAL OUT =    70808524.1829             TOTAL OUT =       91797.7115

            IN - OUT =          -0.4684              IN - OUT =       1.1516E-04

 PERCENT DISCREPANCY =          -0.00     PERCENT DISCREPANCY =           0.00




         TIME SUMMARY AT END OF TIME STEP    3 IN STRESS PERIOD   10
                    SECONDS     MINUTES      HOURS       DAYS        YEARS
                    -----------------------------------------------------------
   TIME STEP LENGTH 2.26223E+05  3770.4      62.840      2.6183     7.16859E-03
 STRESS PERIOD TIME 5.71843E+05  9530.7      158.85      6.6185     1.81206E-02
         TOTAL TIME 2.16534E+07 3.60891E+05  6014.8      250.62     0.68616    


end timestep


start timestep kper="10" kstp="4" mode="normal"

 UBDSV1 SAVING     FLOW-JA-FACE ON UNIT   1015 AT TIME STEP      4, STRESS PERIOD     10
 UBDSV06 SAVING              WEL IN MODEL MUMODEL          PACKAGE MUMODEL         CONNECTED TO MODEL MUMODEL          PACKAGE WEL-1            ON UNIT   1015 AT TIME STEP      4, STRESS PERIOD     10
 UBDSV06 SAVING             RCHA IN MODEL MUMODEL          PACKAGE MUMODEL         CONNECTED TO MODEL MUMODEL          PACKAGE RCH-1            ON UNIT   1015 AT TIME STEP      4, STRESS PERIOD     10

 WEL PACKAGE (WEL-1) FLOW RATES   PERIOD     10   STEP        4
 -----------------------------------------------
   NUMBER   CELLID                    RATE      
 -----------------------------------------------
     1      (1,5,5)               0.0000000     
     2      (1,11,5)              0.0000000     
     3      (1,5,5)               0.0000000     
 -----------------------------------------------




 CHD PACKAGE (CHD-FROM-IBOUND) FLOW RATES   PERIOD     10   STEP        4
 -----------------------------------------------
   NUMBER   CELLID                    RATE      
 -----------------------------------------------
     1      (1,1,1)              -5095.8481     
     2      (1,1,2)              -5095.8458     
     3      (1,1,3)              -5095.8454     
     4      (1,1,4)              -5095.8465     
     5      (1,1,5)              -5095.8479     
     6      (1,1,6)              -5095.8492     
     7      (1,1,7)              -5095.8508     
     8      (1,1,8)              -5095.8530     
     9      (1,1,9)              -5095.8551     
     10     (1,21,1)             -5095.8538     
     11     (1,21,2)             -5095.8509     
     12     (1,21,3)             -5095.8484     
     13     (1,21,4)             -5095.8467     
     14     (1,21,5)             -5095.8452     
     15     (1,21,6)             -5095.8436     
     16     (1,21,7)             -5095.8429     
     17     (1,21,8)             -5095.8448     
     18     (1,21,9)             -5095.8493     
 -----------------------------------------------




 HEAD WILL BE SAVED ON UNIT 1016 AT END OF TIME STEP    4, STRESS PERIOD   10


  VOLUME BUDGET FOR ENTIRE MODEL AT END OF TIME STEP    4, STRESS PERIOD  10
  ---------------------------------------------------------------------------------------------------

     CUMULATIVE VOLUME      L**3       RATES FOR THIS TIME STEP      L**3/T          PACKAGE NAME    
     ------------------                 ------------------------                     ----------------

           IN:                                      IN:
           ---                                      ---
              STO-SS =     6080183.4089                STO-SS =       80654.3191     STORAGE                          
              STO-SY =      192487.7757                STO-SY =        2520.9485     STORAGE                          
                 WEL =           0.0000                   WEL =           0.0000     WEL-1                            
                RCHA =    64824052.6288                  RCHA =        8550.0000     RCH-1                            
                 CHD =           0.0000                   CHD =           0.0000     CHD-FROM-IBOUND                  

            TOTAL IN =    71096723.8135              TOTAL IN =       91725.2676

          OUT:                                     OUT:
          ----                                     ----
              STO-SS =    46536659.9393                STO-SS =           0.0000     STORAGE                          
              STO-SY =     1425275.1378                STO-SY =           0.0000     STORAGE                          
                 WEL =           0.0000                   WEL =           0.0000     WEL-1                            
                RCHA =           0.0000                  RCHA =           0.0000     RCH-1                            
                 CHD =    23134789.2041                   CHD =       91725.2674     CHD-FROM-IBOUND                  

           TOTAL OUT =    71096724.2812             TOTAL OUT =       91725.2674

            IN - OUT =          -0.4678              IN - OUT =       1.9131E-04

 PERCENT DISCREPANCY =          -0.00     PERCENT DISCREPANCY =           0.00




         TIME SUMMARY AT END OF TIME STEP    4 IN STRESS PERIOD   10
                    SECONDS     MINUTES      HOURS       DAYS        YEARS
                    -----------------------------------------------------------
   TIME STEP LENGTH 2.71468E+05  4524.5      75.408      3.1420     8.60231E-03
 STRESS PERIOD TIME 8.43311E+05  14055.      234.25      9.7605     2.67229E-02
         TOTAL TIME 2.19249E+07 3.65415E+05  6090.3      253.76     0.69476    


end timestep


start timestep kper="10" kstp="5" mode="normal"

 UBDSV1 SAVING     FLOW-JA-FACE ON UNIT   1015 AT TIME STEP      5, STRESS PERIOD     10
 UBDSV06 SAVING              WEL IN MODEL MUMODEL          PACKAGE MUMODEL         CONNECTED TO MODEL MUMODEL          PACKAGE WEL-1            ON UNIT   1015 AT TIME STEP      5, STRESS PERIOD     10
 UBDSV06 SAVING             RCHA IN MODEL MUMODEL          PACKAGE MUMODEL         CONNECTED TO MODEL MUMODEL          PACKAGE RCH-1            ON UNIT   1015 AT TIME STEP      5, STRESS PERIOD     10

 WEL PACKAGE (WEL-1) FLOW RATES   PERIOD     10   STEP        5
 -----------------------------------------------
   NUMBER   CELLID                    RATE      
 -----------------------------------------------
     1      (1,5,5)               0.0000000     
     2      (1,11,5)              0.0000000     
     3      (1,5,5)               0.0000000     
 -----------------------------------------------




 CHD PACKAGE (CHD-FROM-IBOUND) FLOW RATES   PERIOD     10   STEP        5
 -----------------------------------------------
   NUMBER   CELLID                    RATE      
 -----------------------------------------------
     1      (1,1,1)              -5091.0589     
     2      (1,1,2)              -5091.0567     
     3      (1,1,3)              -5091.0563     
     4      (1,1,4)              -5091.0573     
     5      (1,1,5)              -5091.0587     
     6      (1,1,6)              -5091.0600     
     7      (1,1,7)              -5091.0616     
     8      (1,1,8)              -5091.0638     
     9      (1,1,9)              -5091.0659     
     10     (1,21,1)             -5091.0646     
     11     (1,21,2)             -5091.0617     
     12     (1,21,3)             -5091.0592     
     13     (1,21,4)             -5091.0575     
     14     (1,21,5)             -5091.0560     
     15     (1,21,6)             -5091.0545     
     16     (1,21,7)             -5091.0537     
     17     (1,21,8)             -5091.0556     
     18     (1,21,9)             -5091.0602     
 -----------------------------------------------




 HEAD WILL BE SAVED ON UNIT 1016 AT END OF TIME STEP    5, STRESS PERIOD   10


  VOLUME BUDGET FOR ENTIRE MODEL AT END OF TIME STEP    5, STRESS PERIOD  10
  ---------------------------------------------------------------------------------------------------

     CUMULATIVE VOLUME      L**3       RATES FOR THIS TIME STEP      L**3/T          PACKAGE NAME    
     ------------------                 ------------------------                     ----------------

           IN:                                      IN:
           ---                                      ---
              STO-SS =     6383969.1025                STO-SS =       80571.4043     STORAGE                          
              STO-SY =      201980.3310                STO-SY =        2517.6581     STORAGE                          
                 WEL =           0.0000                   WEL =           0.0000     WEL-1                            
                RCHA =    64856289.4715                  RCHA =        8550.0000     RCH-1                            
                 CHD =           0.0000                   CHD =           0.0000     CHD-FROM-IBOUND                  

            TOTAL IN =    71442238.9049              TOTAL IN =       91639.0624

          OUT:                                     OUT:
          ----                                     ----
              STO-SS =    46536659.9393                STO-SS =           0.0000     STORAGE                          
              STO-SY =     1425275.1378                STO-SY =           0.0000     STORAGE                          
                 WEL =           0.0000                   WEL =           0.0000     WEL-1                            
                RCHA =           0.0000                  RCHA =           0.0000     RCH-1                            
                 CHD =    23480304.2944                   CHD =       91639.0621     CHD-FROM-IBOUND                  

           TOTAL OUT =    71442239.3715             TOTAL OUT =       91639.0621

            IN - OUT =          -0.4666              IN - OUT =       3.2397E-04

 PERCENT DISCREPANCY =          -0.00     PERCENT DISCREPANCY =           0.00




         TIME SUMMARY AT END OF TIME STEP    5 IN STRESS PERIOD   10
                    SECONDS     MINUTES      HOURS       DAYS        YEARS
                    -----------------------------------------------------------
   TIME STEP LENGTH 3.25762E+05  5429.4      90.489      3.7704     1.03228E-02
 STRESS PERIOD TIME 1.16907E+06  19485.      324.74      13.531     3.70457E-02
         TOTAL TIME 2.22507E+07 3.70845E+05  6180.7      257.53     0.70508    


end timestep


start timestep kper="10" kstp="6" mode="normal"

 UBDSV1 SAVING     FLOW-JA-FACE ON UNIT   1015 AT TIME STEP      6, STRESS PERIOD     10
 UBDSV06 SAVING              WEL IN MODEL MUMODEL          PACKAGE MUMODEL         CONNECTED TO MODEL MUMODEL          PACKAGE WEL-1            ON UNIT   1015 AT TIME STEP      6, STRESS PERIOD     10
 UBDSV06 SAVING             RCHA IN MODEL MUMODEL          PACKAGE MUMODEL         CONNECTED TO MODEL MUMODEL          PACKAGE RCH-1            ON UNIT   1015 AT TIME STEP      6, STRESS PERIOD     10

 WEL PACKAGE (WEL-1) FLOW RATES   PERIOD     10   STEP        6
 -----------------------------------------------
   NUMBER   CELLID                    RATE      
 -----------------------------------------------
     1      (1,5,5)               0.0000000     
     2      (1,11,5)              0.0000000     
     3      (1,5,5)               0.0000000     
 -----------------------------------------------




 CHD PACKAGE (CHD-FROM-IBOUND) FLOW RATES   PERIOD     10   STEP        6
 -----------------------------------------------
   NUMBER   CELLID                    RATE      
 -----------------------------------------------
     1      (1,1,1)              -5085.3691     
     2      (1,1,2)              -5085.3669     
     3      (1,1,3)              -5085.3665     
     4      (1,1,4)              -5085.3675     
     5      (1,1,5)              -5085.3688     
     6      (1,1,6)              -5085.3701     
     7      (1,1,7)              -5085.3718     
     8      (1,1,8)              -5085.3739     
     9      (1,1,9)              -5085.3760     
     10     (1,21,1)             -5085.3747     
     11     (1,21,2)             -5085.3719     
     12     (1,21,3)             -5085.3693     
     13     (1,21,4)             -5085.3677     
     14     (1,21,5)             -5085.3662     
     15     (1,21,6)             -5085.3647     
     16     (1,21,7)             -5085.3639     
     17     (1,21,8)             -5085.3659     
     18     (1,21,9)             -5085.3703     
 -----------------------------------------------




 HEAD WILL BE SAVED ON UNIT 1016 AT END OF TIME STEP    6, STRESS PERIOD   10


  VOLUME BUDGET FOR ENTIRE MODEL AT END OF TIME STEP    6, STRESS PERIOD  10
  ---------------------------------------------------------------------------------------------------

     CUMULATIVE VOLUME      L**3       RATES FOR THIS TIME STEP      L**3/T          PACKAGE NAME    
     ------------------                 ------------------------                     ----------------

           IN:                                      IN:
           ---                                      ---
              STO-SS =     6748066.2240                STO-SS =       80472.8931     STORAGE                          
              STO-SY =      213353.7274                STO-SY =        2513.7527     STORAGE                          
                 WEL =           0.0000                   WEL =           0.0000     WEL-1                            
                RCHA =    64894973.6826                  RCHA =        8550.0000     RCH-1                            
                 CHD =           0.0000                   CHD =           0.0000     CHD-FROM-IBOUND                  

            TOTAL IN =    71856393.6340              TOTAL IN =       91536.6458

          OUT:                                     OUT:
          ----                                     ----
              STO-SS =    46536659.9393                STO-SS =           0.0000     STORAGE                          
              STO-SY =     1425275.1378                STO-SY =           0.0000     STORAGE                          
                 WEL =           0.0000                   WEL =           0.0000     WEL-1                            
                RCHA =           0.0000                  RCHA =           0.0000     RCH-1                            
                 CHD =    23894459.0210                   CHD =       91536.6453     CHD-FROM-IBOUND                  

           TOTAL OUT =    71856394.0981             TOTAL OUT =       91536.6453

            IN - OUT =          -0.4641              IN - OUT =       5.3806E-04

 PERCENT DISCREPANCY =          -0.00     PERCENT DISCREPANCY =           0.00




         TIME SUMMARY AT END OF TIME STEP    6 IN STRESS PERIOD   10
                    SECONDS     MINUTES      HOURS       DAYS        YEARS
                    -----------------------------------------------------------
   TIME STEP LENGTH 3.90914E+05  6515.2      108.59      4.5245     1.23873E-02
 STRESS PERIOD TIME 1.55999E+06  26000.      433.33      18.055     4.94330E-02
         TOTAL TIME 2.26416E+07 3.77360E+05  6289.3      262.06     0.71747    


end timestep


start timestep kper="10" kstp="7" mode="normal"

 UBDSV1 SAVING     FLOW-JA-FACE ON UNIT   1015 AT TIME STEP      7, STRESS PERIOD     10
 UBDSV06 SAVING              WEL IN MODEL MUMODEL          PACKAGE MUMODEL         CONNECTED TO MODEL MUMODEL          PACKAGE WEL-1            ON UNIT   1015 AT TIME STEP      7, STRESS PERIOD     10
 UBDSV06 SAVING             RCHA IN MODEL MUMODEL          PACKAGE MUMODEL         CONNECTED TO MODEL MUMODEL          PACKAGE RCH-1            ON UNIT   1015 AT TIME STEP      7, STRESS PERIOD     10

 WEL PACKAGE (WEL-1) FLOW RATES   PERIOD     10   STEP        7
 -----------------------------------------------
   NUMBER   CELLID                    RATE      
 -----------------------------------------------
     1      (1,5,5)               0.0000000     
     2      (1,11,5)              0.0000000     
     3      (1,5,5)               0.0000000     
 -----------------------------------------------




 CHD PACKAGE (CHD-FROM-IBOUND) FLOW RATES   PERIOD     10   STEP        7
 -----------------------------------------------
   NUMBER   CELLID                    RATE      
 -----------------------------------------------
     1      (1,1,1)              -5078.6220     
     2      (1,1,2)              -5078.6198     
     3      (1,1,3)              -5078.6194     
     4      (1,1,4)              -5078.6204     
     5      (1,1,5)              -5078.6217     
     6      (1,1,6)              -5078.6230     
     7      (1,1,7)              -5078.6246     
     8      (1,1,8)              -5078.6268     
     9      (1,1,9)              -5078.6288     
     10     (1,21,1)             -5078.6275     
     11     (1,21,2)             -5078.6247     
     12     (1,21,3)             -5078.6222     
     13     (1,21,4)             -5078.6206     
     14     (1,21,5)             -5078.6191     
     15     (1,21,6)             -5078.6176     
     16     (1,21,7)             -5078.6169     
     17     (1,21,8)             -5078.6188     
     18     (1,21,9)             -5078.6232     
 -----------------------------------------------




 HEAD WILL BE SAVED ON UNIT 1016 AT END OF TIME STEP    7, STRESS PERIOD   10


  VOLUME BUDGET FOR ENTIRE MODEL AT END OF TIME STEP    7, STRESS PERIOD  10
  ---------------------------------------------------------------------------------------------------

     CUMULATIVE VOLUME      L**3       RATES FOR THIS TIME STEP      L**3/T          PACKAGE NAME    
     ------------------                 ------------------------                     ----------------

           IN:                                      IN:
           ---                                      ---
              STO-SS =     7184348.5011                STO-SS =       80356.0712     STORAGE                          
              STO-SY =      226976.6882                STO-SY =        2509.1269     STORAGE                          
                 WEL =           0.0000                   WEL =           0.0000     WEL-1                            
                RCHA =    64941394.7360                  RCHA =        8550.0000     RCH-1                            
                 CHD =           0.0000                   CHD =           0.0000     CHD-FROM-IBOUND                  

            TOTAL IN =    72352719.9253              TOTAL IN =       91415.1981

          OUT:                                     OUT:
          ----                                     ----
              STO-SS =    46536659.9393                STO-SS =           0.0000     STORAGE                          
              STO-SY =     1425275.1378                STO-SY =           0.0000     STORAGE                          
                 WEL =           0.0000                   WEL =           0.0000     WEL-1                            
                RCHA =           0.0000                  RCHA =           0.0000     RCH-1                            
                 CHD =    24390785.3074                   CHD =       91415.1972     CHD-FROM-IBOUND                  

           TOTAL OUT =    72352720.3845             TOTAL OUT =       91415.1972

            IN - OUT =          -0.4592              IN - OUT =       8.9820E-04

 PERCENT DISCREPANCY =          -0.00     PERCENT DISCREPANCY =           0.00




         TIME SUMMARY AT END OF TIME STEP    7 IN STRESS PERIOD   10
                    SECONDS     MINUTES      HOURS       DAYS        YEARS
                    -----------------------------------------------------------
   TIME STEP LENGTH 4.69097E+05  7818.3      130.30      5.4294     1.48648E-02
 STRESS PERIOD TIME 2.02908E+06  33818.      563.63      23.485     6.42978E-02
         TOTAL TIME 2.31107E+07 3.85178E+05  6419.6      267.48     0.73233    


end timestep


start timestep kper="10" kstp="8" mode="normal"

 UBDSV1 SAVING     FLOW-JA-FACE ON UNIT   1015 AT TIME STEP      8, STRESS PERIOD     10
 UBDSV06 SAVING              WEL IN MODEL MUMODEL          PACKAGE MUMODEL         CONNECTED TO MODEL MUMODEL          PACKAGE WEL-1            ON UNIT   1015 AT TIME STEP      8, STRESS PERIOD     10
 UBDSV06 SAVING             RCHA IN MODEL MUMODEL          PACKAGE MUMODEL         CONNECTED TO MODEL MUMODEL          PACKAGE RCH-1            ON UNIT   1015 AT TIME STEP      8, STRESS PERIOD     10

 WEL PACKAGE (WEL-1) FLOW RATES   PERIOD     10   STEP        8
 -----------------------------------------------
   NUMBER   CELLID                    RATE      
 -----------------------------------------------
     1      (1,5,5)               0.0000000     
     2      (1,11,5)              0.0000000     
     3      (1,5,5)               0.0000000     
 -----------------------------------------------




 CHD PACKAGE (CHD-FROM-IBOUND) FLOW RATES   PERIOD     10   STEP        8
 -----------------------------------------------
   NUMBER   CELLID                    RATE      
 -----------------------------------------------
     1      (1,1,1)              -5070.6388     
     2      (1,1,2)              -5070.6366     
     3      (1,1,3)              -5070.6362     
     4      (1,1,4)              -5070.6372     
     5      (1,1,5)              -5070.6385     
     6      (1,1,6)              -5070.6398     
     7      (1,1,7)              -5070.6414     
     8      (1,1,8)              -5070.6435     
     9      (1,1,9)              -5070.6456     
     10     (1,21,1)             -5070.6442     
     11     (1,21,2)             -5070.6415     
     12     (1,21,3)             -5070.6390     
     13     (1,21,4)             -5070.6373     
     14     (1,21,5)             -5070.6359     
     15     (1,21,6)             -5070.6344     
     16     (1,21,7)             -5070.6338     
     17     (1,21,8)             -5070.6357     
     18     (1,21,9)             -5070.6400     
 -----------------------------------------------




 HEAD WILL BE SAVED ON UNIT 1016 AT END OF TIME STEP    8, STRESS PERIOD   10


  VOLUME BUDGET FOR ENTIRE MODEL AT END OF TIME STEP    8, STRESS PERIOD  10
  ---------------------------------------------------------------------------------------------------

     CUMULATIVE VOLUME      L**3       RATES FOR THIS TIME STEP      L**3/T          PACKAGE NAME    
     ------------------                 ------------------------                     ----------------

           IN:                                      IN:
           ---                                      ---
              STO-SS =     7706986.6221                STO-SS =       80217.8396     STORAGE                          
              STO-SY =      243288.6318                STO-SY =        2503.6614     STORAGE                          
                 WEL =           0.0000                   WEL =           0.0000     WEL-1                            
                RCHA =    64997100.0000                  RCHA =        8550.0000     RCH-1                            
                 CHD =           0.0000                   CHD =           0.0000     CHD-FROM-IBOUND                  

            TOTAL IN =    72947375.2539              TOTAL IN =       91271.5010

          OUT:                                     OUT:
          ----                                     ----
              STO-SS =    46536659.9393                STO-SS =           0.0000     STORAGE                          
              STO-SY =     1425275.1378                STO-SY =           0.0000     STORAGE                          
                 WEL =           0.0000                   WEL =           0.0000     WEL-1                            
                RCHA =           0.0000                  RCHA =           0.0000     RCH-1                            
                 CHD =    24985440.6264                   CHD =       91271.4995     CHD-FROM-IBOUND                  

           TOTAL OUT =    72947375.7035             TOTAL OUT =       91271.4995

            IN - OUT =          -0.4496              IN - OUT =       1.4841E-03

 PERCENT DISCREPANCY =          -0.00     PERCENT DISCREPANCY =           0.00




         TIME SUMMARY AT END OF TIME STEP    8 IN STRESS PERIOD   10
                    SECONDS     MINUTES      HOURS       DAYS        YEARS
                    -----------------------------------------------------------
   TIME STEP LENGTH 5.62916E+05  9381.9      156.37      6.5152     1.78377E-02
 STRESS PERIOD TIME 2.59200E+06  43200.      720.00      30.000     8.21355E-02
         TOTAL TIME 2.36736E+07 3.94560E+05  6576.0      274.00     0.75017    


end timestep


start timestep kper="11" kstp="1" mode="normal"


 OUTPUT CONTROL FOR STRESS PERIOD 11 IS REPEATED USING SETTINGS FROM A PREVIOUS STRESS PERIOD.


 STRESS PERIOD 11 IS TRANSIENT


 REUSING WELS FROM LAST STRESS PERIOD

 REUSING RCHS FROM LAST STRESS PERIOD

 REUSING CHDS FROM LAST STRESS PERIOD
 UBDSV1 SAVING     FLOW-JA-FACE ON UNIT   1015 AT TIME STEP      1, STRESS PERIOD     11
 UBDSV06 SAVING              WEL IN MODEL MUMODEL          PACKAGE MUMODEL         CONNECTED TO MODEL MUMODEL          PACKAGE WEL-1            ON UNIT   1015 AT TIME STEP      1, STRESS PERIOD     11
 UBDSV06 SAVING             RCHA IN MODEL MUMODEL          PACKAGE MUMODEL         CONNECTED TO MODEL MUMODEL          PACKAGE RCH-1            ON UNIT   1015 AT TIME STEP      1, STRESS PERIOD     11

 WEL PACKAGE (WEL-1) FLOW RATES   PERIOD     11   STEP        1
 -----------------------------------------------
   NUMBER   CELLID                    RATE      
 -----------------------------------------------
     1      (1,5,5)               0.0000000     
     2      (1,11,5)              0.0000000     
     3      (1,5,5)               0.0000000     
 -----------------------------------------------




 CHD PACKAGE (CHD-FROM-IBOUND) FLOW RATES   PERIOD     11   STEP        1
 -----------------------------------------------
   NUMBER   CELLID                    RATE      
 -----------------------------------------------
     1      (1,1,1)              -5068.3454     
     2      (1,1,2)              -5068.3433     
     3      (1,1,3)              -5068.3429     
     4      (1,1,4)              -5068.3439     
     5      (1,1,5)              -5068.3452     
     6      (1,1,6)              -5068.3465     
     7      (1,1,7)              -5068.3480     
     8      (1,1,8)              -5068.3502     
     9      (1,1,9)              -5068.3522     
     10     (1,21,1)             -5068.3508     
     11     (1,21,2)             -5068.3481     
     12     (1,21,3)             -5068.3456     
     13     (1,21,4)             -5068.3440     
     14     (1,21,5)             -5068.3426     
     15     (1,21,6)             -5068.3411     
     16     (1,21,7)             -5068.3405     
     17     (1,21,8)             -5068.3424     
     18     (1,21,9)             -5068.3467     
 -----------------------------------------------




 HEAD WILL BE SAVED ON UNIT 1016 AT END OF TIME STEP    1, STRESS PERIOD   11


  VOLUME BUDGET FOR ENTIRE MODEL AT END OF TIME STEP    1, STRESS PERIOD  11
  ---------------------------------------------------------------------------------------------------

     CUMULATIVE VOLUME      L**3       RATES FOR THIS TIME STEP      L**3/T          PACKAGE NAME    
     ------------------                 ------------------------                     ----------------

           IN:                                      IN:
           ---                                      ---
              STO-SS =     7857632.4329                STO-SS =       80178.0002     STORAGE                          
              STO-SY =      247990.0316                STO-SY =        2502.2191     STORAGE                          
                 WEL =           0.0000                   WEL =           0.0000     WEL-1                            
                RCHA =    65013164.5274                  RCHA =        8550.0000     RCH-1                            
                 CHD =           0.0000                   CHD =           0.0000     CHD-FROM-IBOUND                  

            TOTAL IN =    73118786.9919              TOTAL IN =       91230.2194

          OUT:                                     OUT:
          ----                                     ----
              STO-SS =    46536659.9393                STO-SS =           0.0000     STORAGE                          
              STO-SY =     1425275.1378                STO-SY =           0.0000     STORAGE                          
                 WEL =           0.0000                   WEL =           0.0000     WEL-1                            
                RCHA =           0.0000                  RCHA =           0.0000     RCH-1                            
                 CHD =    25156852.3643                   CHD =       91230.2193     CHD-FROM-IBOUND                  

           TOTAL OUT =    73118787.4414             TOTAL OUT =       91230.2193

            IN - OUT =          -0.4495              IN - OUT =       4.1183E-05

 PERCENT DISCREPANCY =          -0.00     PERCENT DISCREPANCY =           0.00




         TIME SUMMARY AT END OF TIME STEP    1 IN STRESS PERIOD   11
                    SECONDS     MINUTES      HOURS       DAYS        YEARS
                    -----------------------------------------------------------
   TIME STEP LENGTH 1.62336E+05  2705.6      45.093      1.8789     5.14413E-03
 STRESS PERIOD TIME 1.62336E+05  2705.6      45.093      1.8789     5.14413E-03
         TOTAL TIME 2.38359E+07 3.97266E+05  6621.1      275.88     0.75532    


end timestep


start timestep kper="11" kstp="2" mode="normal"

 UBDSV1 SAVING     FLOW-JA-FACE ON UNIT   1015 AT TIME STEP      2, STRESS PERIOD     11
 UBDSV06 SAVING              WEL IN MODEL MUMODEL          PACKAGE MUMODEL         CONNECTED TO MODEL MUMODEL          PACKAGE WEL-1            ON UNIT   1015 AT TIME STEP      2, STRESS PERIOD     11
 UBDSV06 SAVING             RCHA IN MODEL MUMODEL          PACKAGE MUMODEL         CONNECTED TO MODEL MUMODEL          PACKAGE RCH-1            ON UNIT   1015 AT TIME STEP      2, STRESS PERIOD     11

 WEL PACKAGE (WEL-1) FLOW RATES   PERIOD     11   STEP        2
 -----------------------------------------------
   NUMBER   CELLID                    RATE      
 -----------------------------------------------
     1      (1,5,5)               0.0000000     
     2      (1,11,5)              0.0000000     
     3      (1,5,5)               0.0000000     
 -----------------------------------------------




 CHD PACKAGE (CHD-FROM-IBOUND) FLOW RATES   PERIOD     11   STEP        2
 -----------------------------------------------
   NUMBER   CELLID                    RATE      
 -----------------------------------------------
     1      (1,1,1)              -5065.6073     
     2      (1,1,2)              -5065.6052     
     3      (1,1,3)              -5065.6047     
     4      (1,1,4)              -5065.6057     
     5      (1,1,5)              -5065.6070     
     6      (1,1,6)              -5065.6083     
     7      (1,1,7)              -5065.6099     
     8      (1,1,8)              -5065.6120     
     9      (1,1,9)              -5065.6140     
     10     (1,21,1)             -5065.6126     
     11     (1,21,2)             -5065.6099     
     12     (1,21,3)             -5065.6074     
     13     (1,21,4)             -5065.6058     
     14     (1,21,5)             -5065.6044     
     15     (1,21,6)             -5065.6029     
     16     (1,21,7)             -5065.6023     
     17     (1,21,8)             -5065.6043     
     18     (1,21,9)             -5065.6085     
 -----------------------------------------------




 HEAD WILL BE SAVED ON UNIT 1016 AT END OF TIME STEP    2, STRESS PERIOD   11


  VOLUME BUDGET FOR ENTIRE MODEL AT END OF TIME STEP    2, STRESS PERIOD  11
  ---------------------------------------------------------------------------------------------------

     CUMULATIVE VOLUME      L**3       RATES FOR THIS TIME STEP      L**3/T          PACKAGE NAME    
     ------------------                 ------------------------                     ----------------

           IN:                                      IN:
           ---                                      ---
              STO-SS =     8038300.5039                STO-SS =       80130.5867     STORAGE                          
              STO-SY =      253627.4867                STO-SY =        2500.3455     STORAGE                          
                 WEL =           0.0000                   WEL =           0.0000     WEL-1                            
                RCHA =    65032441.9603                  RCHA =        8550.0000     RCH-1                            
                 CHD =           0.0000                   CHD =           0.0000     CHD-FROM-IBOUND                  

            TOTAL IN =    73324369.9509              TOTAL IN =       91180.9321

          OUT:                                     OUT:
          ----                                     ----
              STO-SS =    46536659.9393                STO-SS =           0.0000     STORAGE                          
              STO-SY =     1425275.1378                STO-SY =           0.0000     STORAGE                          
                 WEL =           0.0000                   WEL =           0.0000     WEL-1                            
                RCHA =           0.0000                  RCHA =           0.0000     RCH-1                            
                 CHD =    25362435.3232                   CHD =       91180.9321     CHD-FROM-IBOUND                  

           TOTAL OUT =    73324370.4003             TOTAL OUT =       91180.9321

            IN - OUT =          -0.4494              IN - OUT =       6.1682E-05

 PERCENT DISCREPANCY =          -0.00     PERCENT DISCREPANCY =           0.00




         TIME SUMMARY AT END OF TIME STEP    2 IN STRESS PERIOD   11
                    SECONDS     MINUTES      HOURS       DAYS        YEARS
                    -----------------------------------------------------------
   TIME STEP LENGTH 1.94804E+05  3246.7      54.112      2.2547     6.17295E-03
 STRESS PERIOD TIME 3.57140E+05  5952.3      99.206      4.1336     1.13171E-02
         TOTAL TIME 2.40307E+07 4.00512E+05  6675.2      278.13     0.76149    


end timestep


start timestep kper="11" kstp="3" mode="normal"

 UBDSV1 SAVING     FLOW-JA-FACE ON UNIT   1015 AT TIME STEP      3, STRESS PERIOD     11
 UBDSV06 SAVING              WEL IN MODEL MUMODEL          PACKAGE MUMODEL         CONNECTED TO MODEL MUMODEL          PACKAGE WEL-1            ON UNIT   1015 AT TIME STEP      3, STRESS PERIOD     11
 UBDSV06 SAVING             RCHA IN MODEL MUMODEL          PACKAGE MUMODEL         CONNECTED TO MODEL MUMODEL          PACKAGE RCH-1            ON UNIT   1015 AT TIME STEP      3, STRESS PERIOD     11

 WEL PACKAGE (WEL-1) FLOW RATES   PERIOD     11   STEP        3
 -----------------------------------------------
   NUMBER   CELLID                    RATE      
 -----------------------------------------------
     1      (1,5,5)               0.0000000     
     2      (1,11,5)              0.0000000     
     3      (1,5,5)               0.0000000     
 -----------------------------------------------




 CHD PACKAGE (CHD-FROM-IBOUND) FLOW RATES   PERIOD     11   STEP        3
 -----------------------------------------------
   NUMBER   CELLID                    RATE      
 -----------------------------------------------
     1      (1,1,1)              -5062.3405     
     2      (1,1,2)              -5062.3384     
     3      (1,1,3)              -5062.3380     
     4      (1,1,4)              -5062.3389     
     5      (1,1,5)              -5062.3402     
     6      (1,1,6)              -5062.3415     
     7      (1,1,7)              -5062.3431     
     8      (1,1,8)              -5062.3452     
     9      (1,1,9)              -5062.3472     
     10     (1,21,1)             -5062.3458     
     11     (1,21,2)             -5062.3431     
     12     (1,21,3)             -5062.3407     
     13     (1,21,4)             -5062.3390     
     14     (1,21,5)             -5062.3376     
     15     (1,21,6)             -5062.3362     
     16     (1,21,7)             -5062.3356     
     17     (1,21,8)             -5062.3375     
     18     (1,21,9)             -5062.3417     
 -----------------------------------------------




 HEAD WILL BE SAVED ON UNIT 1016 AT END OF TIME STEP    3, STRESS PERIOD   11


  VOLUME BUDGET FOR ENTIRE MODEL AT END OF TIME STEP    3, STRESS PERIOD  11
  ---------------------------------------------------------------------------------------------------

     CUMULATIVE VOLUME      L**3       RATES FOR THIS TIME STEP      L**3/T          PACKAGE NAME    
     ------------------                 ------------------------                     ----------------

           IN:                                      IN:
           ---                                      ---
              STO-SS =     8254949.1388                STO-SS =       80074.0188     STORAGE                          
              STO-SY =      260386.3885                STO-SY =        2498.1114     STORAGE                          
                 WEL =           0.0000                   WEL =           0.0000     WEL-1                            
                RCHA =    65055574.8798                  RCHA =        8550.0000     RCH-1                            
                 CHD =           0.0000                   CHD =           0.0000     CHD-FROM-IBOUND                  

            TOTAL IN =    73570910.4071              TOTAL IN =       91122.1302

          OUT:                                     OUT:
          ----                                     ----
              STO-SS =    46536659.9393                STO-SS =           0.0000     STORAGE                          
              STO-SY =     1425275.1378                STO-SY =           0.0000     STORAGE                          
                 WEL =           0.0000                   WEL =           0.0000     WEL-1                            
                RCHA =           0.0000                  RCHA =           0.0000     RCH-1                            
                 CHD =    25608975.7791                   CHD =       91122.1301     CHD-FROM-IBOUND                  

           TOTAL OUT =    73570910.8561             TOTAL OUT =       91122.1301

            IN - OUT =          -0.4491              IN - OUT =       1.0637E-04

 PERCENT DISCREPANCY =          -0.00     PERCENT DISCREPANCY =           0.00




         TIME SUMMARY AT END OF TIME STEP    3 IN STRESS PERIOD   11
                    SECONDS     MINUTES      HOURS       DAYS        YEARS
                    -----------------------------------------------------------
   TIME STEP LENGTH 2.33764E+05  3896.1      64.935      2.7056     7.40754E-03
 STRESS PERIOD TIME 5.90904E+05  9848.4      164.14      6.8392     1.87246E-02
         TOTAL TIME 2.42645E+07 4.04408E+05  6740.1      280.84     0.76890    


end timestep


start timestep kper="11" kstp="4" mode="normal"

 UBDSV1 SAVING     FLOW-JA-FACE ON UNIT   1015 AT TIME STEP      4, STRESS PERIOD     11
 UBDSV06 SAVING              WEL IN MODEL MUMODEL          PACKAGE MUMODEL         CONNECTED TO MODEL MUMODEL          PACKAGE WEL-1            ON UNIT   1015 AT TIME STEP      4, STRESS PERIOD     11
 UBDSV06 SAVING             RCHA IN MODEL MUMODEL          PACKAGE MUMODEL         CONNECTED TO MODEL MUMODEL          PACKAGE RCH-1            ON UNIT   1015 AT TIME STEP      4, STRESS PERIOD     11

 WEL PACKAGE (WEL-1) FLOW RATES   PERIOD     11   STEP        4
 -----------------------------------------------
   NUMBER   CELLID                    RATE      
 -----------------------------------------------
     1      (1,5,5)               0.0000000     
     2      (1,11,5)              0.0000000     
     3      (1,5,5)               0.0000000     
 -----------------------------------------------




 CHD PACKAGE (CHD-FROM-IBOUND) FLOW RATES   PERIOD     11   STEP        4
 -----------------------------------------------
   NUMBER   CELLID                    RATE      
 -----------------------------------------------
     1      (1,1,1)              -5058.4474     
     2      (1,1,2)              -5058.4454     
     3      (1,1,3)              -5058.4449     
     4      (1,1,4)              -5058.4459     
     5      (1,1,5)              -5058.4472     
     6      (1,1,6)              -5058.4485     
     7      (1,1,7)              -5058.4500     
     8      (1,1,8)              -5058.4521     
     9      (1,1,9)              -5058.4541     
     10     (1,21,1)             -5058.4527     
     11     (1,21,2)             -5058.4500     
     12     (1,21,3)             -5058.4476     
     13     (1,21,4)             -5058.4460     
     14     (1,21,5)             -5058.4446     
     15     (1,21,6)             -5058.4431     
     16     (1,21,7)             -5058.4426     
     17     (1,21,8)             -5058.4445     
     18     (1,21,9)             -5058.4486     
 -----------------------------------------------




 HEAD WILL BE SAVED ON UNIT 1016 AT END OF TIME STEP    4, STRESS PERIOD   11


  VOLUME BUDGET FOR ENTIRE MODEL AT END OF TIME STEP    4, STRESS PERIOD  11
  ---------------------------------------------------------------------------------------------------

     CUMULATIVE VOLUME      L**3       RATES FOR THIS TIME STEP      L**3/T          PACKAGE NAME    
     ------------------                 ------------------------                     ----------------

           IN:                                      IN:
           ---                                      ---
              STO-SS =     8514708.6252                STO-SS =       80006.6046     STORAGE                          
              STO-SY =      268488.4328                STO-SY =        2495.4510     STORAGE                          
                 WEL =           0.0000                   WEL =           0.0000     WEL-1                            
                RCHA =    65083334.3831                  RCHA =        8550.0000     RCH-1                            
                 CHD =           0.0000                   CHD =           0.0000     CHD-FROM-IBOUND                  

            TOTAL IN =    73866531.4412              TOTAL IN =       91052.0555

          OUT:                                     OUT:
          ----                                     ----
              STO-SS =    46536659.9393                STO-SS =           0.0000     STORAGE                          
              STO-SY =     1425275.1378                STO-SY =           0.0000     STORAGE                          
                 WEL =           0.0000                   WEL =           0.0000     WEL-1                            
                RCHA =           0.0000                  RCHA =           0.0000     RCH-1                            
                 CHD =    25904596.8126                   CHD =       91052.0553     CHD-FROM-IBOUND                  

           TOTAL OUT =    73866531.8896             TOTAL OUT =       91052.0553

            IN - OUT =          -0.4485              IN - OUT =       1.8361E-04

 PERCENT DISCREPANCY =          -0.00     PERCENT DISCREPANCY =           0.00




         TIME SUMMARY AT END OF TIME STEP    4 IN STRESS PERIOD   11
                    SECONDS     MINUTES      HOURS       DAYS        YEARS
                    -----------------------------------------------------------
   TIME STEP LENGTH 2.80517E+05  4675.3      77.921      3.2467     8.88905E-03
 STRESS PERIOD TIME 8.71421E+05  14524.      242.06      10.086     2.76137E-02
         TOTAL TIME 2.45450E+07 4.09084E+05  6818.1      284.09     0.77778    


end timestep


start timestep kper="11" kstp="5" mode="normal"

 UBDSV1 SAVING     FLOW-JA-FACE ON UNIT   1015 AT TIME STEP      5, STRESS PERIOD     11
 UBDSV06 SAVING              WEL IN MODEL MUMODEL          PACKAGE MUMODEL         CONNECTED TO MODEL MUMODEL          PACKAGE WEL-1            ON UNIT   1015 AT TIME STEP      5, STRESS PERIOD     11
 UBDSV06 SAVING             RCHA IN MODEL MUMODEL          PACKAGE MUMODEL         CONNECTED TO MODEL MUMODEL          PACKAGE RCH-1            ON UNIT   1015 AT TIME STEP      5, STRESS PERIOD     11

 WEL PACKAGE (WEL-1) FLOW RATES   PERIOD     11   STEP        5
 -----------------------------------------------
   NUMBER   CELLID                    RATE      
 -----------------------------------------------
     1      (1,5,5)               0.0000000     
     2      (1,11,5)              0.0000000     
     3      (1,5,5)               0.0000000     
 -----------------------------------------------




 CHD PACKAGE (CHD-FROM-IBOUND) FLOW RATES   PERIOD     11   STEP        5
 -----------------------------------------------
   NUMBER   CELLID                    RATE      
 -----------------------------------------------
     1      (1,1,1)              -5053.8142     
     2      (1,1,2)              -5053.8122     
     3      (1,1,3)              -5053.8118     
     4      (1,1,4)              -5053.8127     
     5      (1,1,5)              -5053.8140     
     6      (1,1,6)              -5053.8152     
     7      (1,1,7)              -5053.8168     
     8      (1,1,8)              -5053.8189     
     9      (1,1,9)              -5053.8209     
     10     (1,21,1)             -5053.8194     
     11     (1,21,2)             -5053.8168     
     12     (1,21,3)             -5053.8144     
     13     (1,21,4)             -5053.8128     
     14     (1,21,5)             -5053.8114     
     15     (1,21,6)             -5053.8099     
     16     (1,21,7)             -5053.8094     
     17     (1,21,8)             -5053.8113     
     18     (1,21,9)             -5053.8154     
 -----------------------------------------------




 HEAD WILL BE SAVED ON UNIT 1016 AT END OF TIME STEP    5, STRESS PERIOD   11


  VOLUME BUDGET FOR ENTIRE MODEL AT END OF TIME STEP    5, STRESS PERIOD  11
  ---------------------------------------------------------------------------------------------------

     CUMULATIVE VOLUME      L**3       RATES FOR THIS TIME STEP      L**3/T          PACKAGE NAME    
     ------------------                 ------------------------                     ----------------

           IN:                                      IN:
           ---                                      ---
              STO-SS =     8826107.4106                STO-SS =       79926.3703     STORAGE                          
              STO-SY =      278198.5607                STO-SY =        2492.2874     STORAGE                          
                 WEL =           0.0000                   WEL =           0.0000     WEL-1                            
                RCHA =    65116645.7872                  RCHA =        8550.0000     RCH-1                            
                 CHD =           0.0000                   CHD =           0.0000     CHD-FROM-IBOUND                  

            TOTAL IN =    74220951.7585              TOTAL IN =       90968.6578

          OUT:                                     OUT:
          ----                                     ----
              STO-SS =    46536659.9393                STO-SS =           0.0000     STORAGE                          
              STO-SY =     1425275.1378                STO-SY =           0.0000     STORAGE                          
                 WEL =           0.0000                   WEL =           0.0000     WEL-1                            
                RCHA =           0.0000                  RCHA =           0.0000     RCH-1                            
                 CHD =    26259017.1287                   CHD =       90968.6574     CHD-FROM-IBOUND                  

           TOTAL OUT =    74220952.2057             TOTAL OUT =       90968.6574

            IN - OUT =          -0.4473              IN - OUT =       3.0951E-04

 PERCENT DISCREPANCY =          -0.00     PERCENT DISCREPANCY =           0.00




         TIME SUMMARY AT END OF TIME STEP    5 IN STRESS PERIOD   11
                    SECONDS     MINUTES      HOURS       DAYS        YEARS
                    -----------------------------------------------------------
   TIME STEP LENGTH 3.36621E+05  5610.3      93.506      3.8961     1.06669E-02
 STRESS PERIOD TIME 1.20804E+06  20134.      335.57      13.982     3.82805E-02
         TOTAL TIME 2.48816E+07 4.14694E+05  6911.6      287.98     0.78845    


end timestep


start timestep kper="11" kstp="6" mode="normal"

 UBDSV1 SAVING     FLOW-JA-FACE ON UNIT   1015 AT TIME STEP      6, STRESS PERIOD     11
 UBDSV06 SAVING              WEL IN MODEL MUMODEL          PACKAGE MUMODEL         CONNECTED TO MODEL MUMODEL          PACKAGE WEL-1            ON UNIT   1015 AT TIME STEP      6, STRESS PERIOD     11
 UBDSV06 SAVING             RCHA IN MODEL MUMODEL          PACKAGE MUMODEL         CONNECTED TO MODEL MUMODEL          PACKAGE RCH-1            ON UNIT   1015 AT TIME STEP      6, STRESS PERIOD     11

 WEL PACKAGE (WEL-1) FLOW RATES   PERIOD     11   STEP        6
 -----------------------------------------------
   NUMBER   CELLID                    RATE      
 -----------------------------------------------
     1      (1,5,5)               0.0000000     
     2      (1,11,5)              0.0000000     
     3      (1,5,5)               0.0000000     
 -----------------------------------------------




 CHD PACKAGE (CHD-FROM-IBOUND) FLOW RATES   PERIOD     11   STEP        6
 -----------------------------------------------
   NUMBER   CELLID                    RATE      
 -----------------------------------------------
     1      (1,1,1)              -5048.3088     
     2      (1,1,2)              -5048.3068     
     3      (1,1,3)              -5048.3063     
     4      (1,1,4)              -5048.3072     
     5      (1,1,5)              -5048.3085     
     6      (1,1,6)              -5048.3097     
     7      (1,1,7)              -5048.3113     
     8      (1,1,8)              -5048.3134     
     9      (1,1,9)              -5048.3153     
     10     (1,21,1)             -5048.3139     
     11     (1,21,2)             -5048.3113     
     12     (1,21,3)             -5048.3089     
     13     (1,21,4)             -5048.3073     
     14     (1,21,5)             -5048.3059     
     15     (1,21,6)             -5048.3045     
     16     (1,21,7)             -5048.3040     
     17     (1,21,8)             -5048.3059     
     18     (1,21,9)             -5048.3099     
 -----------------------------------------------




 HEAD WILL BE SAVED ON UNIT 1016 AT END OF TIME STEP    6, STRESS PERIOD   11


  VOLUME BUDGET FOR ENTIRE MODEL AT END OF TIME STEP    6, STRESS PERIOD  11
  ---------------------------------------------------------------------------------------------------

     CUMULATIVE VOLUME      L**3       RATES FOR THIS TIME STEP      L**3/T          PACKAGE NAME    
     ------------------                 ------------------------                     ----------------

           IN:                                      IN:
           ---                                      ---
              STO-SS =     9199340.1969                STO-SS =       79831.0272     STORAGE                          
              STO-SY =      289833.1573                STO-SY =        2488.5322     STORAGE                          
                 WEL =           0.0000                   WEL =           0.0000     WEL-1                            
                RCHA =    65156619.4720                  RCHA =        8550.0000     RCH-1                            
                 CHD =           0.0000                   CHD =           0.0000     CHD-FROM-IBOUND                  

            TOTAL IN =    74645792.8263              TOTAL IN =       90869.5594

          OUT:                                     OUT:
          ----                                     ----
              STO-SS =    46536659.9393                STO-SS =           0.0000     STORAGE                          
              STO-SY =     1425275.1378                STO-SY =           0.0000     STORAGE                          
                 WEL =           0.0000                   WEL =           0.0000     WEL-1                            
                RCHA =           0.0000                  RCHA =           0.0000     RCH-1                            
                 CHD =    26683858.1940                   CHD =       90869.5589     CHD-FROM-IBOUND                  

           TOTAL OUT =    74645793.2711             TOTAL OUT =       90869.5589

            IN - OUT =          -0.4449              IN - OUT =       5.1594E-04

 PERCENT DISCREPANCY =          -0.00     PERCENT DISCREPANCY =           0.00




         TIME SUMMARY AT END OF TIME STEP    6 IN STRESS PERIOD   11
                    SECONDS     MINUTES      HOURS       DAYS        YEARS
                    -----------------------------------------------------------
   TIME STEP LENGTH 4.03945E+05  6732.4      112.21      4.6753     1.28002E-02
 STRESS PERIOD TIME 1.61199E+06  26866.      447.77      18.657     5.10808E-02
         TOTAL TIME 2.52856E+07 4.21426E+05  7023.8      292.66     0.80125    


end timestep


start timestep kper="11" kstp="7" mode="normal"

 UBDSV1 SAVING     FLOW-JA-FACE ON UNIT   1015 AT TIME STEP      7, STRESS PERIOD     11
 UBDSV06 SAVING              WEL IN MODEL MUMODEL          PACKAGE MUMODEL         CONNECTED TO MODEL MUMODEL          PACKAGE WEL-1            ON UNIT   1015 AT TIME STEP      7, STRESS PERIOD     11
 UBDSV06 SAVING             RCHA IN MODEL MUMODEL          PACKAGE MUMODEL         CONNECTED TO MODEL MUMODEL          PACKAGE RCH-1            ON UNIT   1015 AT TIME STEP      7, STRESS PERIOD     11

 WEL PACKAGE (WEL-1) FLOW RATES   PERIOD     11   STEP        7
 -----------------------------------------------
   NUMBER   CELLID                    RATE      
 -----------------------------------------------
     1      (1,5,5)               0.0000000     
     2      (1,11,5)              0.0000000     
     3      (1,5,5)               0.0000000     
 -----------------------------------------------




 CHD PACKAGE (CHD-FROM-IBOUND) FLOW RATES   PERIOD     11   STEP        7
 -----------------------------------------------
   NUMBER   CELLID                    RATE      
 -----------------------------------------------
     1      (1,1,1)              -5041.7789     
     2      (1,1,2)              -5041.7769     
     3      (1,1,3)              -5041.7765     
     4      (1,1,4)              -5041.7774     
     5      (1,1,5)              -5041.7786     
     6      (1,1,6)              -5041.7799     
     7      (1,1,7)              -5041.7814     
     8      (1,1,8)              -5041.7835     
     9      (1,1,9)              -5041.7854     
     10     (1,21,1)             -5041.7839     
     11     (1,21,2)             -5041.7814     
     12     (1,21,3)             -5041.7790     
     13     (1,21,4)             -5041.7774     
     14     (1,21,5)             -5041.7760     
     15     (1,21,6)             -5041.7746     
     16     (1,21,7)             -5041.7741     
     17     (1,21,8)             -5041.7761     
     18     (1,21,9)             -5041.7801     
 -----------------------------------------------




 HEAD WILL BE SAVED ON UNIT 1016 AT END OF TIME STEP    7, STRESS PERIOD   11


  VOLUME BUDGET FOR ENTIRE MODEL AT END OF TIME STEP    7, STRESS PERIOD  11
  ---------------------------------------------------------------------------------------------------

     CUMULATIVE VOLUME      L**3       RATES FOR THIS TIME STEP      L**3/T          PACKAGE NAME    
     ------------------                 ------------------------                     ----------------

           IN:                                      IN:
           ---                                      ---
              STO-SS =     9646585.0726                STO-SS =       79717.9382     STORAGE                          
              STO-SY =      303769.7159                STO-SY =        2484.0837     STORAGE                          
                 WEL =           0.0000                   WEL =           0.0000     WEL-1                            
                RCHA =    65204587.8938                  RCHA =        8550.0000     RCH-1                            
                 CHD =           0.0000                   CHD =           0.0000     CHD-FROM-IBOUND                  

            TOTAL IN =    75154942.6823              TOTAL IN =       90752.0220

          OUT:                                     OUT:
          ----                                     ----
              STO-SS =    46536659.9393                STO-SS =           0.0000     STORAGE                          
              STO-SY =     1425275.1378                STO-SY =           0.0000     STORAGE                          
                 WEL =           0.0000                   WEL =           0.0000     WEL-1                            
                RCHA =           0.0000                  RCHA =           0.0000     RCH-1                            
                 CHD =    27193008.0453                   CHD =       90752.0211     CHD-FROM-IBOUND                  

           TOTAL OUT =    75154943.1224             TOTAL OUT =       90752.0211

            IN - OUT =          -0.4400              IN - OUT =       8.5670E-04

 PERCENT DISCREPANCY =          -0.00     PERCENT DISCREPANCY =           0.00




         TIME SUMMARY AT END OF TIME STEP    7 IN STRESS PERIOD   11
                    SECONDS     MINUTES      HOURS       DAYS        YEARS
                    -----------------------------------------------------------
   TIME STEP LENGTH 4.84734E+05  8078.9      134.65      5.6103     1.53603E-02
 STRESS PERIOD TIME 2.09672E+06  34945.      582.42      24.268     6.64410E-02
         TOTAL TIME 2.57703E+07 4.29505E+05  7158.4      298.27     0.81661    


end timestep


start timestep kper="11" kstp="8" mode="normal"

 UBDSV1 SAVING     FLOW-JA-FACE ON UNIT   1015 AT TIME STEP      8, STRESS PERIOD     11
 UBDSV06 SAVING              WEL IN MODEL MUMODEL          PACKAGE MUMODEL         CONNECTED TO MODEL MUMODEL          PACKAGE WEL-1            ON UNIT   1015 AT TIME STEP      8, STRESS PERIOD     11
 UBDSV06 SAVING             RCHA IN MODEL MUMODEL          PACKAGE MUMODEL         CONNECTED TO MODEL MUMODEL          PACKAGE RCH-1            ON UNIT   1015 AT TIME STEP      8, STRESS PERIOD     11

 WEL PACKAGE (WEL-1) FLOW RATES   PERIOD     11   STEP        8
 -----------------------------------------------
   NUMBER   CELLID                    RATE      
 -----------------------------------------------
     1      (1,5,5)               0.0000000     
     2      (1,11,5)              0.0000000     
     3      (1,5,5)               0.0000000     
 -----------------------------------------------




 CHD PACKAGE (CHD-FROM-IBOUND) FLOW RATES   PERIOD     11   STEP        8
 -----------------------------------------------
   NUMBER   CELLID                    RATE      
 -----------------------------------------------
     1      (1,1,1)              -5034.0507     
     2      (1,1,2)              -5034.0488     
     3      (1,1,3)              -5034.0484     
     4      (1,1,4)              -5034.0493     
     5      (1,1,5)              -5034.0505     
     6      (1,1,6)              -5034.0517     
     7      (1,1,7)              -5034.0533     
     8      (1,1,8)              -5034.0553     
     9      (1,1,9)              -5034.0572     
     10     (1,21,1)             -5034.0557     
     11     (1,21,2)             -5034.0532     
     12     (1,21,3)             -5034.0508     
     13     (1,21,4)             -5034.0493     
     14     (1,21,5)             -5034.0479     
     15     (1,21,6)             -5034.0466     
     16     (1,21,7)             -5034.0461     
     17     (1,21,8)             -5034.0481     
     18     (1,21,9)             -5034.0519     
 -----------------------------------------------




 HEAD WILL BE SAVED ON UNIT 1016 AT END OF TIME STEP    8, STRESS PERIOD   11


  VOLUME BUDGET FOR ENTIRE MODEL AT END OF TIME STEP    8, STRESS PERIOD  11
  ---------------------------------------------------------------------------------------------------

     CUMULATIVE VOLUME      L**3       RATES FOR THIS TIME STEP      L**3/T          PACKAGE NAME    
     ------------------                 ------------------------                     ----------------

           IN:                                      IN:
           ---                                      ---
              STO-SS =    10182377.7977                STO-SS =       79584.0893     STORAGE                          
              STO-SY =      320458.1947                STO-SY =        2478.8268     STORAGE                          
                 WEL =           0.0000                   WEL =           0.0000     WEL-1                            
                RCHA =    65262150.0000                  RCHA =        8550.0000     RCH-1                            
                 CHD =           0.0000                   CHD =           0.0000     CHD-FROM-IBOUND                  

            TOTAL IN =    75764985.9923              TOTAL IN =       90612.9162

          OUT:                                     OUT:
          ----                                     ----
              STO-SS =    46536659.9393                STO-SS =           0.0000     STORAGE                          
              STO-SY =     1425275.1378                STO-SY =           0.0000     STORAGE                          
                 WEL =           0.0000                   WEL =           0.0000     WEL-1                            
                RCHA =           0.0000                  RCHA =           0.0000     RCH-1                            
                 CHD =    27803051.3458                   CHD =       90612.9147     CHD-FROM-IBOUND                  

           TOTAL OUT =    75764986.4228             TOTAL OUT =       90612.9147

            IN - OUT =          -0.4305              IN - OUT =       1.4181E-03

 PERCENT DISCREPANCY =          -0.00     PERCENT DISCREPANCY =           0.00




         TIME SUMMARY AT END OF TIME STEP    8 IN STRESS PERIOD   11
                    SECONDS     MINUTES      HOURS       DAYS        YEARS
                    -----------------------------------------------------------
   TIME STEP LENGTH 5.81680E+05  9694.7      161.58      6.7324     1.84323E-02
 STRESS PERIOD TIME 2.67840E+06  44640.      744.00      31.000     8.48734E-02
         TOTAL TIME 2.63520E+07 4.39200E+05  7320.0      305.00     0.83504    


end timestep


start timestep kper="12" kstp="1" mode="normal"


 OUTPUT CONTROL FOR STRESS PERIOD 12 IS REPEATED USING SETTINGS FROM A PREVIOUS STRESS PERIOD.


 STRESS PERIOD 12 IS TRANSIENT


 REUSING WELS FROM LAST STRESS PERIOD

 REUSING RCHS FROM LAST STRESS PERIOD

 REUSING CHDS FROM LAST STRESS PERIOD
 UBDSV1 SAVING     FLOW-JA-FACE ON UNIT   1015 AT TIME STEP      1, STRESS PERIOD     12
 UBDSV06 SAVING              WEL IN MODEL MUMODEL          PACKAGE MUMODEL         CONNECTED TO MODEL MUMODEL          PACKAGE WEL-1            ON UNIT   1015 AT TIME STEP      1, STRESS PERIOD     12
 UBDSV06 SAVING             RCHA IN MODEL MUMODEL          PACKAGE MUMODEL         CONNECTED TO MODEL MUMODEL          PACKAGE RCH-1            ON UNIT   1015 AT TIME STEP      1, STRESS PERIOD     12

 WEL PACKAGE (WEL-1) FLOW RATES   PERIOD     12   STEP        1
 -----------------------------------------------
   NUMBER   CELLID                    RATE      
 -----------------------------------------------
     1      (1,5,5)               0.0000000     
     2      (1,11,5)              0.0000000     
     3      (1,5,5)               0.0000000     
 -----------------------------------------------




 CHD PACKAGE (CHD-FROM-IBOUND) FLOW RATES   PERIOD     12   STEP        1
 -----------------------------------------------
   NUMBER   CELLID                    RATE      
 -----------------------------------------------
     1      (1,1,1)              -5031.9709     
     2      (1,1,2)              -5031.9690     
     3      (1,1,3)              -5031.9685     
     4      (1,1,4)              -5031.9694     
     5      (1,1,5)              -5031.9706     
     6      (1,1,6)              -5031.9718     
     7      (1,1,7)              -5031.9734     
     8      (1,1,8)              -5031.9754     
     9      (1,1,9)              -5031.9773     
     10     (1,21,1)             -5031.9758     
     11     (1,21,2)             -5031.9733     
     12     (1,21,3)             -5031.9710     
     13     (1,21,4)             -5031.9694     
     14     (1,21,5)             -5031.9680     
     15     (1,21,6)             -5031.9667     
     16     (1,21,7)             -5031.9662     
     17     (1,21,8)             -5031.9682     
     18     (1,21,9)             -5031.9720     
 -----------------------------------------------




 HEAD WILL BE SAVED ON UNIT 1016 AT END OF TIME STEP    1, STRESS PERIOD   12


  VOLUME BUDGET FOR ENTIRE MODEL AT END OF TIME STEP    1, STRESS PERIOD  12
  ---------------------------------------------------------------------------------------------------

     CUMULATIVE VOLUME      L**3       RATES FOR THIS TIME STEP      L**3/T          PACKAGE NAME    
     ------------------                 ------------------------                     ----------------

           IN:                                      IN:
           ---                                      ---
              STO-SS =    10327018.4301                STO-SS =       79547.9353     STORAGE                          
              STO-SY =      324963.0654                STO-SY =        2477.5415     STORAGE                          
                 WEL =           0.0000                   WEL =           0.0000     WEL-1                            
                RCHA =    65277696.3168                  RCHA =        8550.0000     RCH-1                            
                 CHD =           0.0000                   CHD =           0.0000     CHD-FROM-IBOUND                  

            TOTAL IN =    75929677.8123              TOTAL IN =       90575.4768

          OUT:                                     OUT:
          ----                                     ----
              STO-SS =    46536659.9393                STO-SS =           0.0000     STORAGE                          
              STO-SY =     1425275.1378                STO-SY =           0.0000     STORAGE                          
                 WEL =           0.0000                   WEL =           0.0000     WEL-1                            
                RCHA =           0.0000                  RCHA =           0.0000     RCH-1                            
                 CHD =    27967743.1657                   CHD =       90575.4768     CHD-FROM-IBOUND                  

           TOTAL OUT =    75929678.2428             TOTAL OUT =       90575.4768

            IN - OUT =          -0.4304              IN - OUT =       3.3645E-05

 PERCENT DISCREPANCY =          -0.00     PERCENT DISCREPANCY =           0.00




         TIME SUMMARY AT END OF TIME STEP    1 IN STRESS PERIOD   12
                    SECONDS     MINUTES      HOURS       DAYS        YEARS
                    -----------------------------------------------------------
   TIME STEP LENGTH 1.57100E+05  2618.3      43.639      1.8183     4.97819E-03
 STRESS PERIOD TIME 1.57100E+05  2618.3      43.639      1.8183     4.97819E-03
         TOTAL TIME 2.65091E+07 4.41818E+05  7363.6      306.82     0.84002    


end timestep


start timestep kper="12" kstp="2" mode="normal"

 UBDSV1 SAVING     FLOW-JA-FACE ON UNIT   1015 AT TIME STEP      2, STRESS PERIOD     12
 UBDSV06 SAVING              WEL IN MODEL MUMODEL          PACKAGE MUMODEL         CONNECTED TO MODEL MUMODEL          PACKAGE WEL-1            ON UNIT   1015 AT TIME STEP      2, STRESS PERIOD     12
 UBDSV06 SAVING             RCHA IN MODEL MUMODEL          PACKAGE MUMODEL         CONNECTED TO MODEL MUMODEL          PACKAGE RCH-1            ON UNIT   1015 AT TIME STEP      2, STRESS PERIOD     12

 WEL PACKAGE (WEL-1) FLOW RATES   PERIOD     12   STEP        2
 -----------------------------------------------
   NUMBER   CELLID                    RATE      
 -----------------------------------------------
     1      (1,5,5)               0.0000000     
     2      (1,11,5)              0.0000000     
     3      (1,5,5)               0.0000000     
 -----------------------------------------------




 CHD PACKAGE (CHD-FROM-IBOUND) FLOW RATES   PERIOD     12   STEP        2
 -----------------------------------------------
   NUMBER   CELLID                    RATE      
 -----------------------------------------------
     1      (1,1,1)              -5029.4866     
     2      (1,1,2)              -5029.4848     
     3      (1,1,3)              -5029.4843     
     4      (1,1,4)              -5029.4852     
     5      (1,1,5)              -5029.4864     
     6      (1,1,6)              -5029.4876     
     7      (1,1,7)              -5029.4891     
     8      (1,1,8)              -5029.4912     
     9      (1,1,9)              -5029.4931     
     10     (1,21,1)             -5029.4915     
     11     (1,21,2)             -5029.4891     
     12     (1,21,3)             -5029.4867     
     13     (1,21,4)             -5029.4852     
     14     (1,21,5)             -5029.4838     
     15     (1,21,6)             -5029.4825     
     16     (1,21,7)             -5029.4820     
     17     (1,21,8)             -5029.4840     
     18     (1,21,9)             -5029.4878     
 -----------------------------------------------




 HEAD WILL BE SAVED ON UNIT 1016 AT END OF TIME STEP    2, STRESS PERIOD   12


  VOLUME BUDGET FOR ENTIRE MODEL AT END OF TIME STEP    2, STRESS PERIOD  12
  ---------------------------------------------------------------------------------------------------

     CUMULATIVE VOLUME      L**3       RATES FOR THIS TIME STEP      L**3/T          PACKAGE NAME    
     ------------------                 ------------------------                     ----------------

           IN:                                      IN:
           ---                                      ---
              STO-SS =    10500493.3068                STO-SS =       79504.9084     STORAGE                          
              STO-SY =      330365.2250                STO-SY =        2475.8525     STORAGE                          
                 WEL =           0.0000                   WEL =           0.0000     WEL-1                            
                RCHA =    65296351.8971                  RCHA =        8550.0000     RCH-1                            
                 CHD =           0.0000                   CHD =           0.0000     CHD-FROM-IBOUND                  

            TOTAL IN =    76127210.4289              TOTAL IN =       90530.7609

          OUT:                                     OUT:
          ----                                     ----
              STO-SS =    46536659.9393                STO-SS =           0.0000     STORAGE                          
              STO-SY =     1425275.1378                STO-SY =           0.0000     STORAGE                          
                 WEL =           0.0000                   WEL =           0.0000     WEL-1                            
                RCHA =           0.0000                  RCHA =           0.0000     RCH-1                            
                 CHD =    28165275.7822                   CHD =       90530.7608     CHD-FROM-IBOUND                  

           TOTAL OUT =    76127210.8593             TOTAL OUT =       90530.7608

            IN - OUT =          -0.4303              IN - OUT =       5.4671E-05

 PERCENT DISCREPANCY =          -0.00     PERCENT DISCREPANCY =           0.00




         TIME SUMMARY AT END OF TIME STEP    2 IN STRESS PERIOD   12
                    SECONDS     MINUTES      HOURS       DAYS        YEARS
                    -----------------------------------------------------------
   TIME STEP LENGTH 1.88520E+05  3142.0      52.367      2.1819     5.97382E-03
 STRESS PERIOD TIME 3.45619E+05  5760.3      96.005      4.0002     1.09520E-02
         TOTAL TIME 2.66976E+07 4.44960E+05  7416.0      309.00     0.84600    


end timestep


start timestep kper="12" kstp="3" mode="normal"

 UBDSV1 SAVING     FLOW-JA-FACE ON UNIT   1015 AT TIME STEP      3, STRESS PERIOD     12
 UBDSV06 SAVING              WEL IN MODEL MUMODEL          PACKAGE MUMODEL         CONNECTED TO MODEL MUMODEL          PACKAGE WEL-1            ON UNIT   1015 AT TIME STEP      3, STRESS PERIOD     12
 UBDSV06 SAVING             RCHA IN MODEL MUMODEL          PACKAGE MUMODEL         CONNECTED TO MODEL MUMODEL          PACKAGE RCH-1            ON UNIT   1015 AT TIME STEP      3, STRESS PERIOD     12

 WEL PACKAGE (WEL-1) FLOW RATES   PERIOD     12   STEP        3
 -----------------------------------------------
   NUMBER   CELLID                    RATE      
 -----------------------------------------------
     1      (1,5,5)               0.0000000     
     2      (1,11,5)              0.0000000     
     3      (1,5,5)               0.0000000     
 -----------------------------------------------




 CHD PACKAGE (CHD-FROM-IBOUND) FLOW RATES   PERIOD     12   STEP        3
 -----------------------------------------------
   NUMBER   CELLID                    RATE      
 -----------------------------------------------
     1      (1,1,1)              -5026.5215     
     2      (1,1,2)              -5026.5196     
     3      (1,1,3)              -5026.5191     
     4      (1,1,4)              -5026.5200     
     5      (1,1,5)              -5026.5212     
     6      (1,1,6)              -5026.5224     
     7      (1,1,7)              -5026.5240     
     8      (1,1,8)              -5026.5260     
     9      (1,1,9)              -5026.5279     
     10     (1,21,1)             -5026.5263     
     11     (1,21,2)             -5026.5239     
     12     (1,21,3)             -5026.5216     
     13     (1,21,4)             -5026.5200     
     14     (1,21,5)             -5026.5186     
     15     (1,21,6)             -5026.5173     
     16     (1,21,7)             -5026.5169     
     17     (1,21,8)             -5026.5189     
     18     (1,21,9)             -5026.5227     
 -----------------------------------------------




 HEAD WILL BE SAVED ON UNIT 1016 AT END OF TIME STEP    3, STRESS PERIOD   12


  VOLUME BUDGET FOR ENTIRE MODEL AT END OF TIME STEP    3, STRESS PERIOD  12
  ---------------------------------------------------------------------------------------------------

     CUMULATIVE VOLUME      L**3       RATES FOR THIS TIME STEP      L**3/T          PACKAGE NAME    
     ------------------                 ------------------------                     ----------------

           IN:                                      IN:
           ---                                      ---
              STO-SS =    10708528.6864                STO-SS =       79453.5502     STORAGE                          
              STO-SY =      336842.5414                STO-SY =        2473.8378     STORAGE                          
                 WEL =           0.0000                   WEL =           0.0000     WEL-1                            
                RCHA =    65318738.5933                  RCHA =        8550.0000     RCH-1                            
                 CHD =           0.0000                   CHD =           0.0000     CHD-FROM-IBOUND                  

            TOTAL IN =    76364109.8211              TOTAL IN =       90477.3880

          OUT:                                     OUT:
          ----                                     ----
              STO-SS =    46536659.9393                STO-SS =           0.0000     STORAGE                          
              STO-SY =     1425275.1378                STO-SY =           0.0000     STORAGE                          
                 WEL =           0.0000                   WEL =           0.0000     WEL-1                            
                RCHA =           0.0000                  RCHA =           0.0000     RCH-1                            
                 CHD =    28402175.1741                   CHD =       90477.3879     CHD-FROM-IBOUND                  

           TOTAL OUT =    76364110.2512             TOTAL OUT =       90477.3879

            IN - OUT =          -0.4301              IN - OUT =       8.8412E-05

 PERCENT DISCREPANCY =          -0.00     PERCENT DISCREPANCY =           0.00




         TIME SUMMARY AT END OF TIME STEP    3 IN STRESS PERIOD   12
                    SECONDS     MINUTES      HOURS       DAYS        YEARS
                    -----------------------------------------------------------
   TIME STEP LENGTH 2.26223E+05  3770.4      62.840      2.6183     7.16859E-03
 STRESS PERIOD TIME 5.71843E+05  9530.7      158.85      6.6185     1.81206E-02
         TOTAL TIME 2.69238E+07 4.48731E+05  7478.8      311.62     0.85317    


end timestep


start timestep kper="12" kstp="4" mode="normal"

 UBDSV1 SAVING     FLOW-JA-FACE ON UNIT   1015 AT TIME STEP      4, STRESS PERIOD     12
 UBDSV06 SAVING              WEL IN MODEL MUMODEL          PACKAGE MUMODEL         CONNECTED TO MODEL MUMODEL          PACKAGE WEL-1            ON UNIT   1015 AT TIME STEP      4, STRESS PERIOD     12
 UBDSV06 SAVING             RCHA IN MODEL MUMODEL          PACKAGE MUMODEL         CONNECTED TO MODEL MUMODEL          PACKAGE RCH-1            ON UNIT   1015 AT TIME STEP      4, STRESS PERIOD     12

 WEL PACKAGE (WEL-1) FLOW RATES   PERIOD     12   STEP        4
 -----------------------------------------------
   NUMBER   CELLID                    RATE      
 -----------------------------------------------
     1      (1,5,5)               0.0000000     
     2      (1,11,5)              0.0000000     
     3      (1,5,5)               0.0000000     
 -----------------------------------------------




 CHD PACKAGE (CHD-FROM-IBOUND) FLOW RATES   PERIOD     12   STEP        4
 -----------------------------------------------
   NUMBER   CELLID                    RATE      
 -----------------------------------------------
     1      (1,1,1)              -5022.9859     
     2      (1,1,2)              -5022.9841     
     3      (1,1,3)              -5022.9836     
     4      (1,1,4)              -5022.9844     
     5      (1,1,5)              -5022.9856     
     6      (1,1,6)              -5022.9869     
     7      (1,1,7)              -5022.9884     
     8      (1,1,8)              -5022.9904     
     9      (1,1,9)              -5022.9923     
     10     (1,21,1)             -5022.9907     
     11     (1,21,2)             -5022.9883     
     12     (1,21,3)             -5022.9860     
     13     (1,21,4)             -5022.9844     
     14     (1,21,5)             -5022.9831     
     15     (1,21,6)             -5022.9818     
     16     (1,21,7)             -5022.9814     
     17     (1,21,8)             -5022.9833     
     18     (1,21,9)             -5022.9871     
 -----------------------------------------------




 HEAD WILL BE SAVED ON UNIT 1016 AT END OF TIME STEP    4, STRESS PERIOD   12


  VOLUME BUDGET FOR ENTIRE MODEL AT END OF TIME STEP    4, STRESS PERIOD  12
  ---------------------------------------------------------------------------------------------------

     CUMULATIVE VOLUME      L**3       RATES FOR THIS TIME STEP      L**3/T          PACKAGE NAME    
     ------------------                 ------------------------                     ----------------

           IN:                                      IN:
           ---                                      ---
              STO-SS =    10957978.7279                STO-SS =       79392.3107     STORAGE                          
              STO-SY =      344607.7783                STO-SY =        2471.4372     STORAGE                          
                 WEL =           0.0000                   WEL =           0.0000     WEL-1                            
                RCHA =    65345602.6288                  RCHA =        8550.0000     RCH-1                            
                 CHD =           0.0000                   CHD =           0.0000     CHD-FROM-IBOUND                  

            TOTAL IN =    76648189.1350              TOTAL IN =       90413.7479

          OUT:                                     OUT:
          ----                                     ----
              STO-SS =    46536659.9393                STO-SS =           0.0000     STORAGE                          
              STO-SY =     1425275.1378                STO-SY =           0.0000     STORAGE                          
                 WEL =           0.0000                   WEL =           0.0000     WEL-1                            
                RCHA =           0.0000                  RCHA =           0.0000     RCH-1                            
                 CHD =    28686254.4876                   CHD =       90413.7477     CHD-FROM-IBOUND                  

           TOTAL OUT =    76648189.5647             TOTAL OUT =       90413.7477

            IN - OUT =          -0.4296              IN - OUT =       1.4562E-04

 PERCENT DISCREPANCY =          -0.00     PERCENT DISCREPANCY =           0.00




         TIME SUMMARY AT END OF TIME STEP    4 IN STRESS PERIOD   12
                    SECONDS     MINUTES      HOURS       DAYS        YEARS
                    -----------------------------------------------------------
   TIME STEP LENGTH 2.71468E+05  4524.5      75.408      3.1420     8.60231E-03
 STRESS PERIOD TIME 8.43311E+05  14055.      234.25      9.7605     2.67229E-02
         TOTAL TIME 2.71953E+07 4.53255E+05  7554.3      314.76     0.86177    


end timestep


start timestep kper="12" kstp="5" mode="normal"

 UBDSV1 SAVING     FLOW-JA-FACE ON UNIT   1015 AT TIME STEP      5, STRESS PERIOD     12
 UBDSV06 SAVING              WEL IN MODEL MUMODEL          PACKAGE MUMODEL         CONNECTED TO MODEL MUMODEL          PACKAGE WEL-1            ON UNIT   1015 AT TIME STEP      5, STRESS PERIOD     12
 UBDSV06 SAVING             RCHA IN MODEL MUMODEL          PACKAGE MUMODEL         CONNECTED TO MODEL MUMODEL          PACKAGE RCH-1            ON UNIT   1015 AT TIME STEP      5, STRESS PERIOD     12

 WEL PACKAGE (WEL-1) FLOW RATES   PERIOD     12   STEP        5
 -----------------------------------------------
   NUMBER   CELLID                    RATE      
 -----------------------------------------------
     1      (1,5,5)               0.0000000     
     2      (1,11,5)              0.0000000     
     3      (1,5,5)               0.0000000     
 -----------------------------------------------




 CHD PACKAGE (CHD-FROM-IBOUND) FLOW RATES   PERIOD     12   STEP        5
 -----------------------------------------------
   NUMBER   CELLID                    RATE      
 -----------------------------------------------
     1      (1,1,1)              -5018.7754     
     2      (1,1,2)              -5018.7736     
     3      (1,1,3)              -5018.7731     
     4      (1,1,4)              -5018.7739     
     5      (1,1,5)              -5018.7751     
     6      (1,1,6)              -5018.7763     
     7      (1,1,7)              -5018.7778     
     8      (1,1,8)              -5018.7799     
     9      (1,1,9)              -5018.7817     
     10     (1,21,1)             -5018.7801     
     11     (1,21,2)             -5018.7777     
     12     (1,21,3)             -5018.7754     
     13     (1,21,4)             -5018.7739     
     14     (1,21,5)             -5018.7725     
     15     (1,21,6)             -5018.7713     
     16     (1,21,7)             -5018.7709     
     17     (1,21,8)             -5018.7728     
     18     (1,21,9)             -5018.7765     
 -----------------------------------------------




 HEAD WILL BE SAVED ON UNIT 1016 AT END OF TIME STEP    5, STRESS PERIOD   12


  VOLUME BUDGET FOR ENTIRE MODEL AT END OF TIME STEP    5, STRESS PERIOD  12
  ---------------------------------------------------------------------------------------------------

     CUMULATIVE VOLUME      L**3       RATES FOR THIS TIME STEP      L**3/T          PACKAGE NAME    
     ------------------                 ------------------------                     ----------------

           IN:                                      IN:
           ---                                      ---
              STO-SS =    11257043.7914                STO-SS =       79319.3776     STORAGE                          
              STO-SY =      353915.2925                STO-SY =        2468.5807     STORAGE                          
                 WEL =           0.0000                   WEL =           0.0000     WEL-1                            
                RCHA =    65377839.4715                  RCHA =        8550.0000     RCH-1                            
                 CHD =           0.0000                   CHD =           0.0000     CHD-FROM-IBOUND                  

            TOTAL IN =    76988798.5554              TOTAL IN =       90337.9583

          OUT:                                     OUT:
          ----                                     ----
              STO-SS =    46536659.9393                STO-SS =           0.0000     STORAGE                          
              STO-SY =     1425275.1378                STO-SY =           0.0000     STORAGE                          
                 WEL =           0.0000                   WEL =           0.0000     WEL-1                            
                RCHA =           0.0000                  RCHA =           0.0000     RCH-1                            
                 CHD =    29026863.9070                   CHD =       90337.9581     CHD-FROM-IBOUND                  

           TOTAL OUT =    76988798.9841             TOTAL OUT =       90337.9581

            IN - OUT =          -0.4287              IN - OUT =       2.4570E-04

 PERCENT DISCREPANCY =          -0.00     PERCENT DISCREPANCY =           0.00




         TIME SUMMARY AT END OF TIME STEP    5 IN STRESS PERIOD   12
                    SECONDS     MINUTES      HOURS       DAYS        YEARS
                    -----------------------------------------------------------
   TIME STEP LENGTH 3.25762E+05  5429.4      90.489      3.7704     1.03228E-02
 STRESS PERIOD TIME 1.16907E+06  19485.      324.74      13.531     3.70457E-02
         TOTAL TIME 2.75211E+07 4.58685E+05  7644.7      318.53     0.87209    


end timestep


start timestep kper="12" kstp="6" mode="normal"

 UBDSV1 SAVING     FLOW-JA-FACE ON UNIT   1015 AT TIME STEP      6, STRESS PERIOD     12
 UBDSV06 SAVING              WEL IN MODEL MUMODEL          PACKAGE MUMODEL         CONNECTED TO MODEL MUMODEL          PACKAGE WEL-1            ON UNIT   1015 AT TIME STEP      6, STRESS PERIOD     12
 UBDSV06 SAVING             RCHA IN MODEL MUMODEL          PACKAGE MUMODEL         CONNECTED TO MODEL MUMODEL          PACKAGE RCH-1            ON UNIT   1015 AT TIME STEP      6, STRESS PERIOD     12

 WEL PACKAGE (WEL-1) FLOW RATES   PERIOD     12   STEP        6
 -----------------------------------------------
   NUMBER   CELLID                    RATE      
 -----------------------------------------------
     1      (1,5,5)               0.0000000     
     2      (1,11,5)              0.0000000     
     3      (1,5,5)               0.0000000     
 -----------------------------------------------




 CHD PACKAGE (CHD-FROM-IBOUND) FLOW RATES   PERIOD     12   STEP        6
 -----------------------------------------------
   NUMBER   CELLID                    RATE      
 -----------------------------------------------
     1      (1,1,1)              -5013.7683     
     2      (1,1,2)              -5013.7665     
     3      (1,1,3)              -5013.7660     
     4      (1,1,4)              -5013.7668     
     5      (1,1,5)              -5013.7680     
     6      (1,1,6)              -5013.7692     
     7      (1,1,7)              -5013.7707     
     8      (1,1,8)              -5013.7727     
     9      (1,1,9)              -5013.7746     
     10     (1,21,1)             -5013.7730     
     11     (1,21,2)             -5013.7706     
     12     (1,21,3)             -5013.7683     
     13     (1,21,4)             -5013.7668     
     14     (1,21,5)             -5013.7654     
     15     (1,21,6)             -5013.7642     
     16     (1,21,7)             -5013.7638     
     17     (1,21,8)             -5013.7658     
     18     (1,21,9)             -5013.7694     
 -----------------------------------------------




 HEAD WILL BE SAVED ON UNIT 1016 AT END OF TIME STEP    6, STRESS PERIOD   12


  VOLUME BUDGET FOR ENTIRE MODEL AT END OF TIME STEP    6, STRESS PERIOD  12
  ---------------------------------------------------------------------------------------------------

     CUMULATIVE VOLUME      L**3       RATES FOR THIS TIME STEP      L**3/T          PACKAGE NAME    
     ------------------                 ------------------------                     ----------------

           IN:                                      IN:
           ---                                      ---
              STO-SS =    11615529.4395                STO-SS =       79232.6430     STORAGE                          
              STO-SY =      365068.9563                STO-SY =        2465.1873     STORAGE                          
                 WEL =           0.0000                   WEL =           0.0000     WEL-1                            
                RCHA =    65416523.6826                  RCHA =        8550.0000     RCH-1                            
                 CHD =           0.0000                   CHD =           0.0000     CHD-FROM-IBOUND                  

            TOTAL IN =    77397122.0783              TOTAL IN =       90247.8303

          OUT:                                     OUT:
          ----                                     ----
              STO-SS =    46536659.9393                STO-SS =           0.0000     STORAGE                          
              STO-SY =     1425275.1378                STO-SY =           0.0000     STORAGE                          
                 WEL =           0.0000                   WEL =           0.0000     WEL-1                            
                RCHA =           0.0000                  RCHA =           0.0000     RCH-1                            
                 CHD =    29435187.4281                   CHD =       90247.8299     CHD-FROM-IBOUND                  

           TOTAL OUT =    77397122.5052             TOTAL OUT =       90247.8299

            IN - OUT =          -0.4269              IN - OUT =       4.0810E-04

 PERCENT DISCREPANCY =          -0.00     PERCENT DISCREPANCY =           0.00




         TIME SUMMARY AT END OF TIME STEP    6 IN STRESS PERIOD   12
                    SECONDS     MINUTES      HOURS       DAYS        YEARS
                    -----------------------------------------------------------
   TIME STEP LENGTH 3.90914E+05  6515.2      108.59      4.5245     1.23873E-02
 STRESS PERIOD TIME 1.55999E+06  26000.      433.33      18.055     4.94330E-02
         TOTAL TIME 2.79120E+07 4.65200E+05  7753.3      323.06     0.88448    


end timestep


start timestep kper="12" kstp="7" mode="normal"

 UBDSV1 SAVING     FLOW-JA-FACE ON UNIT   1015 AT TIME STEP      7, STRESS PERIOD     12
 UBDSV06 SAVING              WEL IN MODEL MUMODEL          PACKAGE MUMODEL         CONNECTED TO MODEL MUMODEL          PACKAGE WEL-1            ON UNIT   1015 AT TIME STEP      7, STRESS PERIOD     12
 UBDSV06 SAVING             RCHA IN MODEL MUMODEL          PACKAGE MUMODEL         CONNECTED TO MODEL MUMODEL          PACKAGE RCH-1            ON UNIT   1015 AT TIME STEP      7, STRESS PERIOD     12

 WEL PACKAGE (WEL-1) FLOW RATES   PERIOD     12   STEP        7
 -----------------------------------------------
   NUMBER   CELLID                    RATE      
 -----------------------------------------------
     1      (1,5,5)               0.0000000     
     2      (1,11,5)              0.0000000     
     3      (1,5,5)               0.0000000     
 -----------------------------------------------




 CHD PACKAGE (CHD-FROM-IBOUND) FLOW RATES   PERIOD     12   STEP        7
 -----------------------------------------------
   NUMBER   CELLID                    RATE      
 -----------------------------------------------
     1      (1,1,1)              -5007.8240     
     2      (1,1,2)              -5007.8222     
     3      (1,1,3)              -5007.8217     
     4      (1,1,4)              -5007.8225     
     5      (1,1,5)              -5007.8237     
     6      (1,1,6)              -5007.8249     
     7      (1,1,7)              -5007.8264     
     8      (1,1,8)              -5007.8284     
     9      (1,1,9)              -5007.8302     
     10     (1,21,1)             -5007.8286     
     11     (1,21,2)             -5007.8263     
     12     (1,21,3)             -5007.8240     
     13     (1,21,4)             -5007.8225     
     14     (1,21,5)             -5007.8212     
     15     (1,21,6)             -5007.8199     
     16     (1,21,7)             -5007.8196     
     17     (1,21,8)             -5007.8215     
     18     (1,21,9)             -5007.8251     
 -----------------------------------------------




 HEAD WILL BE SAVED ON UNIT 1016 AT END OF TIME STEP    7, STRESS PERIOD   12


  VOLUME BUDGET FOR ENTIRE MODEL AT END OF TIME STEP    7, STRESS PERIOD  12
  ---------------------------------------------------------------------------------------------------

     CUMULATIVE VOLUME      L**3       RATES FOR THIS TIME STEP      L**3/T          PACKAGE NAME    
     ------------------                 ------------------------                     ----------------

           IN:                                      IN:
           ---                                      ---
              STO-SS =    12045153.1389                STO-SS =       79129.6699     STORAGE                          
              STO-SY =      378431.5073                STO-SY =        2461.1637     STORAGE                          
                 WEL =           0.0000                   WEL =           0.0000     WEL-1                            
                RCHA =    65462944.7360                  RCHA =        8550.0000     RCH-1                            
                 CHD =           0.0000                   CHD =           0.0000     CHD-FROM-IBOUND                  

            TOTAL IN =    77886529.3822              TOTAL IN =       90140.8336

          OUT:                                     OUT:
          ----                                     ----
              STO-SS =    46536659.9393                STO-SS =           0.0000     STORAGE                          
              STO-SY =     1425275.1378                STO-SY =           0.0000     STORAGE                          
                 WEL =           0.0000                   WEL =           0.0000     WEL-1                            
                RCHA =           0.0000                  RCHA =           0.0000     RCH-1                            
                 CHD =    29924594.7283                   CHD =       90140.8329     CHD-FROM-IBOUND                  

           TOTAL OUT =    77886529.8054             TOTAL OUT =       90140.8329

            IN - OUT =          -0.4232              IN - OUT =       6.8119E-04

 PERCENT DISCREPANCY =          -0.00     PERCENT DISCREPANCY =           0.00




         TIME SUMMARY AT END OF TIME STEP    7 IN STRESS PERIOD   12
                    SECONDS     MINUTES      HOURS       DAYS        YEARS
                    -----------------------------------------------------------
   TIME STEP LENGTH 4.69097E+05  7818.3      130.30      5.4294     1.48648E-02
 STRESS PERIOD TIME 2.02908E+06  33818.      563.63      23.485     6.42978E-02
         TOTAL TIME 2.83811E+07 4.73018E+05  7883.6      328.48     0.89934    


end timestep


start timestep kper="12" kstp="8" mode="normal"

 UBDSV1 SAVING     FLOW-JA-FACE ON UNIT   1015 AT TIME STEP      8, STRESS PERIOD     12
 UBDSV06 SAVING              WEL IN MODEL MUMODEL          PACKAGE MUMODEL         CONNECTED TO MODEL MUMODEL          PACKAGE WEL-1            ON UNIT   1015 AT TIME STEP      8, STRESS PERIOD     12
 UBDSV06 SAVING             RCHA IN MODEL MUMODEL          PACKAGE MUMODEL         CONNECTED TO MODEL MUMODEL          PACKAGE RCH-1            ON UNIT   1015 AT TIME STEP      8, STRESS PERIOD     12

 WEL PACKAGE (WEL-1) FLOW RATES   PERIOD     12   STEP        8
 -----------------------------------------------
   NUMBER   CELLID                    RATE      
 -----------------------------------------------
     1      (1,5,5)               0.0000000     
     2      (1,11,5)              0.0000000     
     3      (1,5,5)               0.0000000     
 -----------------------------------------------




 CHD PACKAGE (CHD-FROM-IBOUND) FLOW RATES   PERIOD     12   STEP        8
 -----------------------------------------------
   NUMBER   CELLID                    RATE      
 -----------------------------------------------
     1      (1,1,1)              -5000.7813     
     2      (1,1,2)              -5000.7795     
     3      (1,1,3)              -5000.7791     
     4      (1,1,4)              -5000.7798     
     5      (1,1,5)              -5000.7810     
     6      (1,1,6)              -5000.7822     
     7      (1,1,7)              -5000.7837     
     8      (1,1,8)              -5000.7857     
     9      (1,1,9)              -5000.7874     
     10     (1,21,1)             -5000.7858     
     11     (1,21,2)             -5000.7835     
     12     (1,21,3)             -5000.7813     
     13     (1,21,4)             -5000.7798     
     14     (1,21,5)             -5000.7785     
     15     (1,21,6)             -5000.7772     
     16     (1,21,7)             -5000.7769     
     17     (1,21,8)             -5000.7789     
     18     (1,21,9)             -5000.7824     
 -----------------------------------------------




 HEAD WILL BE SAVED ON UNIT 1016 AT END OF TIME STEP    8, STRESS PERIOD   12


  VOLUME BUDGET FOR ENTIRE MODEL AT END OF TIME STEP    8, STRESS PERIOD  12
  ---------------------------------------------------------------------------------------------------

     CUMULATIVE VOLUME      L**3       RATES FOR THIS TIME STEP      L**3/T          PACKAGE NAME    
     ------------------                 ------------------------                     ----------------

           IN:                                      IN:
           ---                                      ---
              STO-SS =    12559906.6640                STO-SS =       79007.6614     STORAGE                          
              STO-SY =      394435.5557                STO-SY =        2456.4036     STORAGE                          
                 WEL =           0.0000                   WEL =           0.0000     WEL-1                            
                RCHA =    65518650.0000                  RCHA =        8550.0000     RCH-1                            
                 CHD =           0.0000                   CHD =           0.0000     CHD-FROM-IBOUND                  

            TOTAL IN =    78472992.2197              TOTAL IN =       90014.0650

          OUT:                                     OUT:
          ----                                     ----
              STO-SS =    46536659.9393                STO-SS =           0.0000     STORAGE                          
              STO-SY =     1425275.1378                STO-SY =           0.0000     STORAGE                          
                 WEL =           0.0000                   WEL =           0.0000     WEL-1                            
                RCHA =           0.0000                  RCHA =           0.0000     RCH-1                            
                 CHD =    30511057.5585                   CHD =       90014.0639     CHD-FROM-IBOUND                  

           TOTAL OUT =    78472992.6355             TOTAL OUT =       90014.0639

            IN - OUT =          -0.4158              IN - OUT =       1.1257E-03

 PERCENT DISCREPANCY =          -0.00     PERCENT DISCREPANCY =           0.00




         TIME SUMMARY AT END OF TIME STEP    8 IN STRESS PERIOD   12
                    SECONDS     MINUTES      HOURS       DAYS        YEARS
                    -----------------------------------------------------------
   TIME STEP LENGTH 5.62916E+05  9381.9      156.37      6.5152     1.78377E-02
 STRESS PERIOD TIME 2.59200E+06  43200.      720.00      30.000     8.21355E-02
         TOTAL TIME 2.89440E+07 4.82400E+05  8040.0      335.00     0.91718    


end timestep


start timestep kper="13" kstp="1" mode="normal"


 OUTPUT CONTROL FOR STRESS PERIOD 13 IS REPEATED USING SETTINGS FROM A PREVIOUS STRESS PERIOD.


 STRESS PERIOD 13 IS TRANSIENT


 REUSING WELS FROM LAST STRESS PERIOD

 REUSING CHDS FROM LAST STRESS PERIOD
 UBDSV1 SAVING     FLOW-JA-FACE ON UNIT   1015 AT TIME STEP      1, STRESS PERIOD     13
 UBDSV06 SAVING              WEL IN MODEL MUMODEL          PACKAGE MUMODEL         CONNECTED TO MODEL MUMODEL          PACKAGE WEL-1            ON UNIT   1015 AT TIME STEP      1, STRESS PERIOD     13
 UBDSV06 SAVING             RCHA IN MODEL MUMODEL          PACKAGE MUMODEL         CONNECTED TO MODEL MUMODEL          PACKAGE RCH-1            ON UNIT   1015 AT TIME STEP      1, STRESS PERIOD     13

 WEL PACKAGE (WEL-1) FLOW RATES   PERIOD     13   STEP        1
 -----------------------------------------------
   NUMBER   CELLID                    RATE      
 -----------------------------------------------
     1      (1,5,5)               0.0000000     
     2      (1,11,5)              0.0000000     
     3      (1,5,5)               0.0000000     
 -----------------------------------------------




 CHD PACKAGE (CHD-FROM-IBOUND) FLOW RATES   PERIOD     13   STEP        1
 -----------------------------------------------
   NUMBER   CELLID                    RATE      
 -----------------------------------------------
     1      (1,1,1)              -5000.3667     
     2      (1,1,2)              -5000.3650     
     3      (1,1,3)              -5000.3645     
     4      (1,1,4)              -5000.3652     
     5      (1,1,5)              -5000.3664     
     6      (1,1,6)              -5000.3676     
     7      (1,1,7)              -5000.3691     
     8      (1,1,8)              -5000.3711     
     9      (1,1,9)              -5000.3728     
     10     (1,21,1)             -5000.3712     
     11     (1,21,2)             -5000.3689     
     12     (1,21,3)             -5000.3667     
     13     (1,21,4)             -5000.3652     
     14     (1,21,5)             -5000.3639     
     15     (1,21,6)             -5000.3626     
     16     (1,21,7)             -5000.3623     
     17     (1,21,8)             -5000.3643     
     18     (1,21,9)             -5000.3678     
 -----------------------------------------------




 HEAD WILL BE SAVED ON UNIT 1016 AT END OF TIME STEP    1, STRESS PERIOD   13


  VOLUME BUDGET FOR ENTIRE MODEL AT END OF TIME STEP    1, STRESS PERIOD  13
  ---------------------------------------------------------------------------------------------------

     CUMULATIVE VOLUME      L**3       RATES FOR THIS TIME STEP      L**3/T          PACKAGE NAME    
     ------------------                 ------------------------                     ----------------

           IN:                                      IN:
           ---                                      ---
              STO-SS =    12568064.8107                STO-SS =        4341.9985     STORAGE                          
              STO-SY =      394744.7809                STO-SY =         164.5785     STORAGE                          
                 WEL =           0.0000                   WEL =           0.0000     WEL-1                            
                RCHA =    65679295.2741                  RCHA =       85500.0000     RCH-1                            
                 CHD =           0.0000                   CHD =           0.0000     CHD-FROM-IBOUND                  

            TOTAL IN =    78642104.8657              TOTAL IN =       90006.5770

          OUT:                                     OUT:
          ----                                     ----
              STO-SS =    46536659.9393                STO-SS =           0.0000     STORAGE                          
              STO-SY =     1425275.1378                STO-SY =           0.0000     STORAGE                          
                 WEL =           0.0000                   WEL =           0.0000     WEL-1                            
                RCHA =           0.0000                  RCHA =           0.0000     RCH-1                            
                 CHD =    30680170.2499                   CHD =       90006.6012     CHD-FROM-IBOUND                  

           TOTAL OUT =    78642105.3269             TOTAL OUT =       90006.6012

            IN - OUT =          -0.4612              IN - OUT =      -2.4153E-02

 PERCENT DISCREPANCY =          -0.00     PERCENT DISCREPANCY =          -0.00




         TIME SUMMARY AT END OF TIME STEP    1 IN STRESS PERIOD   13
                    SECONDS     MINUTES      HOURS       DAYS        YEARS
                    -----------------------------------------------------------
   TIME STEP LENGTH 1.62336E+05  2705.6      45.093      1.8789     5.14413E-03
 STRESS PERIOD TIME 1.62336E+05  2705.6      45.093      1.8789     5.14413E-03
         TOTAL TIME 2.91063E+07 4.85106E+05  8085.1      336.88     0.92232    


end timestep


start timestep kper="13" kstp="2" mode="normal"

 UBDSV1 SAVING     FLOW-JA-FACE ON UNIT   1015 AT TIME STEP      2, STRESS PERIOD     13
 UBDSV06 SAVING              WEL IN MODEL MUMODEL          PACKAGE MUMODEL         CONNECTED TO MODEL MUMODEL          PACKAGE WEL-1            ON UNIT   1015 AT TIME STEP      2, STRESS PERIOD     13
 UBDSV06 SAVING             RCHA IN MODEL MUMODEL          PACKAGE MUMODEL         CONNECTED TO MODEL MUMODEL          PACKAGE RCH-1            ON UNIT   1015 AT TIME STEP      2, STRESS PERIOD     13

 WEL PACKAGE (WEL-1) FLOW RATES   PERIOD     13   STEP        2
 -----------------------------------------------
   NUMBER   CELLID                    RATE      
 -----------------------------------------------
     1      (1,5,5)               0.0000000     
     2      (1,11,5)              0.0000000     
     3      (1,5,5)               0.0000000     
 -----------------------------------------------




 CHD PACKAGE (CHD-FROM-IBOUND) FLOW RATES   PERIOD     13   STEP        2
 -----------------------------------------------
   NUMBER   CELLID                    RATE      
 -----------------------------------------------
     1      (1,1,1)              -4999.8379     
     2      (1,1,2)              -4999.8362     
     3      (1,1,3)              -4999.8357     
     4      (1,1,4)              -4999.8365     
     5      (1,1,5)              -4999.8376     
     6      (1,1,6)              -4999.8388     
     7      (1,1,7)              -4999.8403     
     8      (1,1,8)              -4999.8423     
     9      (1,1,9)              -4999.8441     
     10     (1,21,1)             -4999.8424     
     11     (1,21,2)             -4999.8401     
     12     (1,21,3)             -4999.8379     
     13     (1,21,4)             -4999.8364     
     14     (1,21,5)             -4999.8351     
     15     (1,21,6)             -4999.8339     
     16     (1,21,7)             -4999.8336     
     17     (1,21,8)             -4999.8356     
     18     (1,21,9)             -4999.8391     
 -----------------------------------------------




 HEAD WILL BE SAVED ON UNIT 1016 AT END OF TIME STEP    2, STRESS PERIOD   13


  VOLUME BUDGET FOR ENTIRE MODEL AT END OF TIME STEP    2, STRESS PERIOD  13
  ---------------------------------------------------------------------------------------------------

     CUMULATIVE VOLUME      L**3       RATES FOR THIS TIME STEP      L**3/T          PACKAGE NAME    
     ------------------                 ------------------------                     ----------------

           IN:                                      IN:
           ---                                      ---
              STO-SS =    12577834.0249                STO-SS =        4332.8788     STORAGE                          
              STO-SY =      395114.9437                STO-SY =         164.1760     STORAGE                          
                 WEL =           0.0000                   WEL =           0.0000     WEL-1                            
                RCHA =    65872069.6030                  RCHA =       85500.0000     RCH-1                            
                 CHD =           0.0000                   CHD =           0.0000     CHD-FROM-IBOUND                  

            TOTAL IN =    78845018.5715              TOTAL IN =       89997.0548

          OUT:                                     OUT:
          ----                                     ----
              STO-SS =    46536659.9393                STO-SS =           0.0000     STORAGE                          
              STO-SY =     1425275.1378                STO-SY =           0.0000     STORAGE                          
                 WEL =           0.0000                   WEL =           0.0000     WEL-1                            
                RCHA =           0.0000                  RCHA =           0.0000     RCH-1                            
                 CHD =    30883084.0205                   CHD =       89997.0836     CHD-FROM-IBOUND                  

           TOTAL OUT =    78845019.0976             TOTAL OUT =       89997.0836

            IN - OUT =          -0.5260              IN - OUT =      -2.8757E-02

 PERCENT DISCREPANCY =          -0.00     PERCENT DISCREPANCY =          -0.00




         TIME SUMMARY AT END OF TIME STEP    2 IN STRESS PERIOD   13
                    SECONDS     MINUTES      HOURS       DAYS        YEARS
                    -----------------------------------------------------------
   TIME STEP LENGTH 1.94804E+05  3246.7      54.112      2.2547     6.17295E-03
 STRESS PERIOD TIME 3.57140E+05  5952.3      99.206      4.1336     1.13171E-02
         TOTAL TIME 2.93011E+07 4.88352E+05  8139.2      339.13     0.92850    


end timestep


start timestep kper="13" kstp="3" mode="normal"

 UBDSV1 SAVING     FLOW-JA-FACE ON UNIT   1015 AT TIME STEP      3, STRESS PERIOD     13
 UBDSV06 SAVING              WEL IN MODEL MUMODEL          PACKAGE MUMODEL         CONNECTED TO MODEL MUMODEL          PACKAGE WEL-1            ON UNIT   1015 AT TIME STEP      3, STRESS PERIOD     13
 UBDSV06 SAVING             RCHA IN MODEL MUMODEL          PACKAGE MUMODEL         CONNECTED TO MODEL MUMODEL          PACKAGE RCH-1            ON UNIT   1015 AT TIME STEP      3, STRESS PERIOD     13

 WEL PACKAGE (WEL-1) FLOW RATES   PERIOD     13   STEP        3
 -----------------------------------------------
   NUMBER   CELLID                    RATE      
 -----------------------------------------------
     1      (1,5,5)               0.0000000     
     2      (1,11,5)              0.0000000     
     3      (1,5,5)               0.0000000     
 -----------------------------------------------




 CHD PACKAGE (CHD-FROM-IBOUND) FLOW RATES   PERIOD     13   STEP        3
 -----------------------------------------------
   NUMBER   CELLID                    RATE      
 -----------------------------------------------
     1      (1,1,1)              -4999.2074     
     2      (1,1,2)              -4999.2058     
     3      (1,1,3)              -4999.2053     
     4      (1,1,4)              -4999.2060     
     5      (1,1,5)              -4999.2072     
     6      (1,1,6)              -4999.2084     
     7      (1,1,7)              -4999.2099     
     8      (1,1,8)              -4999.2118     
     9      (1,1,9)              -4999.2136     
     10     (1,21,1)             -4999.2119     
     11     (1,21,2)             -4999.2096     
     12     (1,21,3)             -4999.2074     
     13     (1,21,4)             -4999.2059     
     14     (1,21,5)             -4999.2046     
     15     (1,21,6)             -4999.2035     
     16     (1,21,7)             -4999.2032     
     17     (1,21,8)             -4999.2051     
     18     (1,21,9)             -4999.2086     
 -----------------------------------------------




 HEAD WILL BE SAVED ON UNIT 1016 AT END OF TIME STEP    3, STRESS PERIOD   13


  VOLUME BUDGET FOR ENTIRE MODEL AT END OF TIME STEP    3, STRESS PERIOD  13
  ---------------------------------------------------------------------------------------------------

     CUMULATIVE VOLUME      L**3       RATES FOR THIS TIME STEP      L**3/T          PACKAGE NAME    
     ------------------                 ------------------------                     ----------------

           IN:                                      IN:
           ---                                      ---
              STO-SS =    12589527.6613                STO-SS =        4322.0049     STORAGE                          
              STO-SY =      395557.8408                STO-SY =         163.6962     STORAGE                          
                 WEL =           0.0000                   WEL =           0.0000     WEL-1                            
                RCHA =    66103398.7977                  RCHA =       85500.0000     RCH-1                            
                 CHD =           0.0000                   CHD =           0.0000     CHD-FROM-IBOUND                  

            TOTAL IN =    79088484.2998              TOTAL IN =       89985.7011

          OUT:                                     OUT:
          ----                                     ----
              STO-SS =    46536659.9393                STO-SS =           0.0000     STORAGE                          
              STO-SY =     1425275.1378                STO-SY =           0.0000     STORAGE                          
                 WEL =           0.0000                   WEL =           0.0000     WEL-1                            
                RCHA =           0.0000                  RCHA =           0.0000     RCH-1                            
                 CHD =    31126549.8412                   CHD =       89985.7352     CHD-FROM-IBOUND                  

           TOTAL OUT =    79088484.9183             TOTAL OUT =       89985.7352

            IN - OUT =          -0.6185              IN - OUT =      -3.4178E-02

 PERCENT DISCREPANCY =          -0.00     PERCENT DISCREPANCY =          -0.00




         TIME SUMMARY AT END OF TIME STEP    3 IN STRESS PERIOD   13
                    SECONDS     MINUTES      HOURS       DAYS        YEARS
                    -----------------------------------------------------------
   TIME STEP LENGTH 2.33764E+05  3896.1      64.935      2.7056     7.40754E-03
 STRESS PERIOD TIME 5.90904E+05  9848.4      164.14      6.8392     1.87246E-02
         TOTAL TIME 2.95349E+07 4.92248E+05  8204.1      341.84     0.93590    


end timestep


start timestep kper="13" kstp="4" mode="normal"

 UBDSV1 SAVING     FLOW-JA-FACE ON UNIT   1015 AT TIME STEP      4, STRESS PERIOD     13
 UBDSV06 SAVING              WEL IN MODEL MUMODEL          PACKAGE MUMODEL         CONNECTED TO MODEL MUMODEL          PACKAGE WEL-1            ON UNIT   1015 AT TIME STEP      4, STRESS PERIOD     13
 UBDSV06 SAVING             RCHA IN MODEL MUMODEL          PACKAGE MUMODEL         CONNECTED TO MODEL MUMODEL          PACKAGE RCH-1            ON UNIT   1015 AT TIME STEP      4, STRESS PERIOD     13

 WEL PACKAGE (WEL-1) FLOW RATES   PERIOD     13   STEP        4
 -----------------------------------------------
   NUMBER   CELLID                    RATE      
 -----------------------------------------------
     1      (1,5,5)               0.0000000     
     2      (1,11,5)              0.0000000     
     3      (1,5,5)               0.0000000     
 -----------------------------------------------




 CHD PACKAGE (CHD-FROM-IBOUND) FLOW RATES   PERIOD     13   STEP        4
 -----------------------------------------------
   NUMBER   CELLID                    RATE      
 -----------------------------------------------
     1      (1,1,1)              -4998.4567     
     2      (1,1,2)              -4998.4550     
     3      (1,1,3)              -4998.4545     
     4      (1,1,4)              -4998.4553     
     5      (1,1,5)              -4998.4564     
     6      (1,1,6)              -4998.4576     
     7      (1,1,7)              -4998.4590     
     8      (1,1,8)              -4998.4610     
     9      (1,1,9)              -4998.4627     
     10     (1,21,1)             -4998.4611     
     11     (1,21,2)             -4998.4588     
     12     (1,21,3)             -4998.4566     
     13     (1,21,4)             -4998.4551     
     14     (1,21,5)             -4998.4539     
     15     (1,21,6)             -4998.4527     
     16     (1,21,7)             -4998.4524     
     17     (1,21,8)             -4998.4544     
     18     (1,21,9)             -4998.4578     
 -----------------------------------------------




 HEAD WILL BE SAVED ON UNIT 1016 AT END OF TIME STEP    4, STRESS PERIOD   13


  VOLUME BUDGET FOR ENTIRE MODEL AT END OF TIME STEP    4, STRESS PERIOD  13
  ---------------------------------------------------------------------------------------------------

     CUMULATIVE VOLUME      L**3       RATES FOR THIS TIME STEP      L**3/T          PACKAGE NAME    
     ------------------                 ------------------------                     ----------------

           IN:                                      IN:
           ---                                      ---
              STO-SS =    12603517.9817                STO-SS =        4309.0555     STORAGE                          
              STO-SY =      396087.4626                STO-SY =         163.1249     STORAGE                          
                 WEL =           0.0000                   WEL =           0.0000     WEL-1                            
                RCHA =    66380993.8313                  RCHA =       85500.0000     RCH-1                            
                 CHD =           0.0000                   CHD =           0.0000     CHD-FROM-IBOUND                  

            TOTAL IN =    79380599.2757              TOTAL IN =       89972.1804

          OUT:                                     OUT:
          ----                                     ----
              STO-SS =    46536659.9393                STO-SS =           0.0000     STORAGE                          
              STO-SY =     1425275.1378                STO-SY =           0.0000     STORAGE                          
                 WEL =           0.0000                   WEL =           0.0000     WEL-1                            
                RCHA =           0.0000                  RCHA =           0.0000     RCH-1                            
                 CHD =    31418664.9488                   CHD =       89972.2209     CHD-FROM-IBOUND                  

           TOTAL OUT =    79380600.0258             TOTAL OUT =       89972.2209

            IN - OUT =          -0.7501              IN - OUT =      -4.0542E-02

 PERCENT DISCREPANCY =          -0.00     PERCENT DISCREPANCY =          -0.00




         TIME SUMMARY AT END OF TIME STEP    4 IN STRESS PERIOD   13
                    SECONDS     MINUTES      HOURS       DAYS        YEARS
                    -----------------------------------------------------------
   TIME STEP LENGTH 2.80517E+05  4675.3      77.921      3.2467     8.88905E-03
 STRESS PERIOD TIME 8.71421E+05  14524.      242.06      10.086     2.76137E-02
         TOTAL TIME 2.98154E+07 4.96924E+05  8282.1      345.09     0.94479    


end timestep


start timestep kper="13" kstp="5" mode="normal"

 UBDSV1 SAVING     FLOW-JA-FACE ON UNIT   1015 AT TIME STEP      5, STRESS PERIOD     13
 UBDSV06 SAVING              WEL IN MODEL MUMODEL          PACKAGE MUMODEL         CONNECTED TO MODEL MUMODEL          PACKAGE WEL-1            ON UNIT   1015 AT TIME STEP      5, STRESS PERIOD     13
 UBDSV06 SAVING             RCHA IN MODEL MUMODEL          PACKAGE MUMODEL         CONNECTED TO MODEL MUMODEL          PACKAGE RCH-1            ON UNIT   1015 AT TIME STEP      5, STRESS PERIOD     13

 WEL PACKAGE (WEL-1) FLOW RATES   PERIOD     13   STEP        5
 -----------------------------------------------
   NUMBER   CELLID                    RATE      
 -----------------------------------------------
     1      (1,5,5)               0.0000000     
     2      (1,11,5)              0.0000000     
     3      (1,5,5)               0.0000000     
 -----------------------------------------------




 CHD PACKAGE (CHD-FROM-IBOUND) FLOW RATES   PERIOD     13   STEP        5
 -----------------------------------------------
   NUMBER   CELLID                    RATE      
 -----------------------------------------------
     1      (1,1,1)              -4997.5639     
     2      (1,1,2)              -4997.5622     
     3      (1,1,3)              -4997.5618     
     4      (1,1,4)              -4997.5625     
     5      (1,1,5)              -4997.5636     
     6      (1,1,6)              -4997.5648     
     7      (1,1,7)              -4997.5663     
     8      (1,1,8)              -4997.5682     
     9      (1,1,9)              -4997.5699     
     10     (1,21,1)             -4997.5683     
     11     (1,21,2)             -4997.5660     
     12     (1,21,3)             -4997.5639     
     13     (1,21,4)             -4997.5624     
     14     (1,21,5)             -4997.5611     
     15     (1,21,6)             -4997.5599     
     16     (1,21,7)             -4997.5597     
     17     (1,21,8)             -4997.5616     
     18     (1,21,9)             -4997.5650     
 -----------------------------------------------




 HEAD WILL BE SAVED ON UNIT 1016 AT END OF TIME STEP    5, STRESS PERIOD   13


  VOLUME BUDGET FOR ENTIRE MODEL AT END OF TIME STEP    5, STRESS PERIOD  13
  ---------------------------------------------------------------------------------------------------

     CUMULATIVE VOLUME      L**3       RATES FOR THIS TIME STEP      L**3/T          PACKAGE NAME    
     ------------------                 ------------------------                     ----------------

           IN:                                      IN:
           ---                                      ---
              STO-SS =    12620246.3739                STO-SS =        4293.6573     STORAGE                          
              STO-SY =      396720.3630                STO-SY =         162.4458     STORAGE                          
                 WEL =           0.0000                   WEL =           0.0000     WEL-1                            
                RCHA =    66714107.8717                  RCHA =       85500.0000     RCH-1                            
                 CHD =           0.0000                   CHD =           0.0000     CHD-FROM-IBOUND                  

            TOTAL IN =    79731074.6087              TOTAL IN =       89956.1031

          OUT:                                     OUT:
          ----                                     ----
              STO-SS =    46536659.9393                STO-SS =           0.0000     STORAGE                          
              STO-SY =     1425275.1378                STO-SY =           0.0000     STORAGE                          
                 WEL =           0.0000                   WEL =           0.0000     WEL-1                            
                RCHA =           0.0000                  RCHA =           0.0000     RCH-1                            
                 CHD =    31769140.4687                   CHD =       89956.1511     CHD-FROM-IBOUND                  

           TOTAL OUT =    79731075.5458             TOTAL OUT =       89956.1511

            IN - OUT =          -0.9371              IN - OUT =      -4.7992E-02

 PERCENT DISCREPANCY =          -0.00     PERCENT DISCREPANCY =          -0.00




         TIME SUMMARY AT END OF TIME STEP    5 IN STRESS PERIOD   13
                    SECONDS     MINUTES      HOURS       DAYS        YEARS
                    -----------------------------------------------------------
   TIME STEP LENGTH 3.36621E+05  5610.3      93.506      3.8961     1.06669E-02
 STRESS PERIOD TIME 1.20804E+06  20134.      335.57      13.982     3.82805E-02
         TOTAL TIME 3.01520E+07 5.02534E+05  8375.6      348.98     0.95546    


end timestep


start timestep kper="13" kstp="6" mode="normal"

 UBDSV1 SAVING     FLOW-JA-FACE ON UNIT   1015 AT TIME STEP      6, STRESS PERIOD     13
 UBDSV06 SAVING              WEL IN MODEL MUMODEL          PACKAGE MUMODEL         CONNECTED TO MODEL MUMODEL          PACKAGE WEL-1            ON UNIT   1015 AT TIME STEP      6, STRESS PERIOD     13
 UBDSV06 SAVING             RCHA IN MODEL MUMODEL          PACKAGE MUMODEL         CONNECTED TO MODEL MUMODEL          PACKAGE RCH-1            ON UNIT   1015 AT TIME STEP      6, STRESS PERIOD     13

 WEL PACKAGE (WEL-1) FLOW RATES   PERIOD     13   STEP        6
 -----------------------------------------------
   NUMBER   CELLID                    RATE      
 -----------------------------------------------
     1      (1,5,5)               0.0000000     
     2      (1,11,5)              0.0000000     
     3      (1,5,5)               0.0000000     
 -----------------------------------------------




 CHD PACKAGE (CHD-FROM-IBOUND) FLOW RATES   PERIOD     13   STEP        6
 -----------------------------------------------
   NUMBER   CELLID                    RATE      
 -----------------------------------------------
     1      (1,1,1)              -4996.5042     
     2      (1,1,2)              -4996.5026     
     3      (1,1,3)              -4996.5021     
     4      (1,1,4)              -4996.5028     
     5      (1,1,5)              -4996.5039     
     6      (1,1,6)              -4996.5051     
     7      (1,1,7)              -4996.5065     
     8      (1,1,8)              -4996.5085     
     9      (1,1,9)              -4996.5102     
     10     (1,21,1)             -4996.5085     
     11     (1,21,2)             -4996.5063     
     12     (1,21,3)             -4996.5041     
     13     (1,21,4)             -4996.5027     
     14     (1,21,5)             -4996.5014     
     15     (1,21,6)             -4996.5002     
     16     (1,21,7)             -4996.5000     
     17     (1,21,8)             -4996.5020     
     18     (1,21,9)             -4996.5053     
 -----------------------------------------------




 HEAD WILL BE SAVED ON UNIT 1016 AT END OF TIME STEP    6, STRESS PERIOD   13


  VOLUME BUDGET FOR ENTIRE MODEL AT END OF TIME STEP    6, STRESS PERIOD  13
  ---------------------------------------------------------------------------------------------------

     CUMULATIVE VOLUME      L**3       RATES FOR THIS TIME STEP      L**3/T          PACKAGE NAME    
     ------------------                 ------------------------                     ----------------

           IN:                                      IN:
           ---                                      ---
              STO-SS =    12640234.9911                STO-SS =        4275.3796     STORAGE                          
              STO-SY =      397476.0762                STO-SY =         161.6400     STORAGE                          
                 WEL =           0.0000                   WEL =           0.0000     WEL-1                            
                RCHA =    67113844.7201                  RCHA =       85500.0000     RCH-1                            
                 CHD =           0.0000                   CHD =           0.0000     CHD-FROM-IBOUND                  

            TOTAL IN =    80151555.7874              TOTAL IN =       89937.0196

          OUT:                                     OUT:
          ----                                     ----
              STO-SS =    46536659.9393                STO-SS =           0.0000     STORAGE                          
              STO-SY =     1425275.1378                STO-SY =           0.0000     STORAGE                          
                 WEL =           0.0000                   WEL =           0.0000     WEL-1                            
                RCHA =           0.0000                  RCHA =           0.0000     RCH-1                            
                 CHD =    32189621.9124                   CHD =       89937.0763     CHD-FROM-IBOUND                  

           TOTAL OUT =    80151556.9895             TOTAL OUT =       89937.0763

            IN - OUT =          -1.2020              IN - OUT =      -5.6664E-02

 PERCENT DISCREPANCY =          -0.00     PERCENT DISCREPANCY =          -0.00




         TIME SUMMARY AT END OF TIME STEP    6 IN STRESS PERIOD   13
                    SECONDS     MINUTES      HOURS       DAYS        YEARS
                    -----------------------------------------------------------
   TIME STEP LENGTH 4.03945E+05  6732.4      112.21      4.6753     1.28002E-02
 STRESS PERIOD TIME 1.61199E+06  26866.      447.77      18.657     5.10808E-02
         TOTAL TIME 3.05560E+07 5.09266E+05  8487.8      353.66     0.96826    


end timestep


start timestep kper="13" kstp="7" mode="normal"

 UBDSV1 SAVING     FLOW-JA-FACE ON UNIT   1015 AT TIME STEP      7, STRESS PERIOD     13
 UBDSV06 SAVING              WEL IN MODEL MUMODEL          PACKAGE MUMODEL         CONNECTED TO MODEL MUMODEL          PACKAGE WEL-1            ON UNIT   1015 AT TIME STEP      7, STRESS PERIOD     13
 UBDSV06 SAVING             RCHA IN MODEL MUMODEL          PACKAGE MUMODEL         CONNECTED TO MODEL MUMODEL          PACKAGE RCH-1            ON UNIT   1015 AT TIME STEP      7, STRESS PERIOD     13

 WEL PACKAGE (WEL-1) FLOW RATES   PERIOD     13   STEP        7
 -----------------------------------------------
   NUMBER   CELLID                    RATE      
 -----------------------------------------------
     1      (1,5,5)               0.0000000     
     2      (1,11,5)              0.0000000     
     3      (1,5,5)               0.0000000     
 -----------------------------------------------




 CHD PACKAGE (CHD-FROM-IBOUND) FLOW RATES   PERIOD     13   STEP        7
 -----------------------------------------------
   NUMBER   CELLID                    RATE      
 -----------------------------------------------
     1      (1,1,1)              -4995.1510     
     2      (1,1,2)              -4995.1495     
     3      (1,1,3)              -4995.1490     
     4      (1,1,4)              -4995.1497     
     5      (1,1,5)              -4995.1508     
     6      (1,1,6)              -4995.1519     
     7      (1,1,7)              -4995.1534     
     8      (1,1,8)              -4995.1553     
     9      (1,1,9)              -4995.1570     
     10     (1,21,1)             -4995.1553     
     11     (1,21,2)             -4995.1531     
     12     (1,21,3)             -4995.1510     
     13     (1,21,4)             -4995.1495     
     14     (1,21,5)             -4995.1483     
     15     (1,21,6)             -4995.1471     
     16     (1,21,7)             -4995.1469     
     17     (1,21,8)             -4995.1489     
     18     (1,21,9)             -4995.1522     
 -----------------------------------------------




 HEAD WILL BE SAVED ON UNIT 1016 AT END OF TIME STEP    7, STRESS PERIOD   13


  VOLUME BUDGET FOR ENTIRE MODEL AT END OF TIME STEP    7, STRESS PERIOD  13
  ---------------------------------------------------------------------------------------------------

     CUMULATIVE VOLUME      L**3       RATES FOR THIS TIME STEP      L**3/T          PACKAGE NAME    
     ------------------                 ------------------------                     ----------------

           IN:                                      IN:
           ---                                      ---
              STO-SS =    12664090.6399                STO-SS =        4252.0848     STORAGE                          
              STO-SY =      398377.2961                STO-SY =         160.6355     STORAGE                          
                 WEL =           0.0000                   WEL =           0.0000     WEL-1                            
                RCHA =    67593528.9383                  RCHA =       85500.0000     RCH-1                            
                 CHD =           0.0000                   CHD =           0.0000     CHD-FROM-IBOUND                  

            TOTAL IN =    80655996.8742              TOTAL IN =       89912.7203

          OUT:                                     OUT:
          ----                                     ----
              STO-SS =    46536659.9393                STO-SS =           0.0000     STORAGE                          
              STO-SY =     1425275.1378                STO-SY =           0.0000     STORAGE                          
                 WEL =           0.0000                   WEL =           0.0000     WEL-1                            
                RCHA =           0.0000                  RCHA =           0.0000     RCH-1                            
                 CHD =    32694062.9974                   CHD =       89912.7200     CHD-FROM-IBOUND                  

           TOTAL OUT =    80655998.0745             TOTAL OUT =       89912.7200

            IN - OUT =          -1.2004              IN - OUT =       3.0098E-04

 PERCENT DISCREPANCY =          -0.00     PERCENT DISCREPANCY =           0.00




         TIME SUMMARY AT END OF TIME STEP    7 IN STRESS PERIOD   13
                    SECONDS     MINUTES      HOURS       DAYS        YEARS
                    -----------------------------------------------------------
   TIME STEP LENGTH 4.84734E+05  8078.9      134.65      5.6103     1.53603E-02
 STRESS PERIOD TIME 2.09672E+06  34945.      582.42      24.268     6.64410E-02
         TOTAL TIME 3.10407E+07 5.17345E+05  8622.4      359.27     0.98362    


end timestep


start timestep kper="13" kstp="8" mode="normal"

 UBDSV1 SAVING     FLOW-JA-FACE ON UNIT   1015 AT TIME STEP      8, STRESS PERIOD     13
 UBDSV06 SAVING              WEL IN MODEL MUMODEL          PACKAGE MUMODEL         CONNECTED TO MODEL MUMODEL          PACKAGE WEL-1            ON UNIT   1015 AT TIME STEP      8, STRESS PERIOD     13
 UBDSV06 SAVING             RCHA IN MODEL MUMODEL          PACKAGE MUMODEL         CONNECTED TO MODEL MUMODEL          PACKAGE RCH-1            ON UNIT   1015 AT TIME STEP      8, STRESS PERIOD     13

 WEL PACKAGE (WEL-1) FLOW RATES   PERIOD     13   STEP        8
 -----------------------------------------------
   NUMBER   CELLID                    RATE      
 -----------------------------------------------
     1      (1,5,5)               0.0000000     
     2      (1,11,5)              0.0000000     
     3      (1,5,5)               0.0000000     
 -----------------------------------------------




 CHD PACKAGE (CHD-FROM-IBOUND) FLOW RATES   PERIOD     13   STEP        8
 -----------------------------------------------
   NUMBER   CELLID                    RATE      
 -----------------------------------------------
     1      (1,1,1)              -4993.6494     
     2      (1,1,2)              -4993.6479     
     3      (1,1,3)              -4993.6474     
     4      (1,1,4)              -4993.6481     
     5      (1,1,5)              -4993.6492     
     6      (1,1,6)              -4993.6503     
     7      (1,1,7)              -4993.6518     
     8      (1,1,8)              -4993.6537     
     9      (1,1,9)              -4993.6553     
     10     (1,21,1)             -4993.6536     
     11     (1,21,2)             -4993.6515     
     12     (1,21,3)             -4993.6494     
     13     (1,21,4)             -4993.6479     
     14     (1,21,5)             -4993.6467     
     15     (1,21,6)             -4993.6456     
     16     (1,21,7)             -4993.6454     
     17     (1,21,8)             -4993.6474     
     18     (1,21,9)             -4993.6506     
 -----------------------------------------------




 HEAD WILL BE SAVED ON UNIT 1016 AT END OF TIME STEP    8, STRESS PERIOD   13


  VOLUME BUDGET FOR ENTIRE MODEL AT END OF TIME STEP    8, STRESS PERIOD  13
  ---------------------------------------------------------------------------------------------------

     CUMULATIVE VOLUME      L**3       RATES FOR THIS TIME STEP      L**3/T          PACKAGE NAME    
     ------------------                 ------------------------                     ----------------

           IN:                                      IN:
           ---                                      ---
              STO-SS =    12692543.1012                STO-SS =        4226.1926     STORAGE                          
              STO-SY =      399451.1093                STO-SY =         159.4991     STORAGE                          
                 WEL =           0.0000                   WEL =           0.0000     WEL-1                            
                RCHA =    68169150.0000                  RCHA =       85500.0000     RCH-1                            
                 CHD =           0.0000                   CHD =           0.0000     CHD-FROM-IBOUND                  

            TOTAL IN =    81261144.2105              TOTAL IN =       89885.6916

          OUT:                                     OUT:
          ----                                     ----
              STO-SS =    46536659.9393                STO-SS =           0.0000     STORAGE                          
              STO-SY =     1425275.1378                STO-SY =           0.0000     STORAGE                          
                 WEL =           0.0000                   WEL =           0.0000     WEL-1                            
                RCHA =           0.0000                  RCHA =           0.0000     RCH-1                            
                 CHD =    33299210.3304                   CHD =       89885.6911     CHD-FROM-IBOUND                  

           TOTAL OUT =    81261145.4075             TOTAL OUT =       89885.6911

            IN - OUT =          -1.1970              IN - OUT =       5.0434E-04

 PERCENT DISCREPANCY =          -0.00     PERCENT DISCREPANCY =           0.00




         TIME SUMMARY AT END OF TIME STEP    8 IN STRESS PERIOD   13
                    SECONDS     MINUTES      HOURS       DAYS        YEARS
                    -----------------------------------------------------------
   TIME STEP LENGTH 5.81680E+05  9694.7      161.58      6.7324     1.84323E-02
 STRESS PERIOD TIME 2.67840E+06  44640.      744.00      31.000     8.48734E-02
         TOTAL TIME 3.16224E+07 5.27040E+05  8784.0      366.00      1.0021    


end timestep


start timestep kper="14" kstp="1" mode="normal"


 OUTPUT CONTROL FOR STRESS PERIOD 14 IS REPEATED USING SETTINGS FROM A PREVIOUS STRESS PERIOD.


 STRESS PERIOD 14 IS TRANSIENT

 --------------------------------------------------------------------
  WEL NO.    LAYER    ROW     COL     STRESS RATE         IFACE      
 --------------------------------------------------------------------
     1         1       5       5    -20000.0000       0.00000000     
     2         1      11       5     0.00000000       0.00000000     
     3         1       5       5     0.00000000       0.00000000     
 --------------------------------------------------------------------



 REUSING CHDS FROM LAST STRESS PERIOD
 UBDSV1 SAVING     FLOW-JA-FACE ON UNIT   1015 AT TIME STEP      1, STRESS PERIOD     14
 UBDSV06 SAVING              WEL IN MODEL MUMODEL          PACKAGE MUMODEL         CONNECTED TO MODEL MUMODEL          PACKAGE WEL-1            ON UNIT   1015 AT TIME STEP      1, STRESS PERIOD     14
 UBDSV06 SAVING             RCHA IN MODEL MUMODEL          PACKAGE MUMODEL         CONNECTED TO MODEL MUMODEL          PACKAGE RCH-1            ON UNIT   1015 AT TIME STEP      1, STRESS PERIOD     14

 WEL PACKAGE (WEL-1) FLOW RATES   PERIOD     14   STEP        1
 -----------------------------------------------
   NUMBER   CELLID                    RATE      
 -----------------------------------------------
     1      (1,5,5)              -20000.000     
     2      (1,11,5)              0.0000000     
     3      (1,5,5)               0.0000000     
 -----------------------------------------------




 CHD PACKAGE (CHD-FROM-IBOUND) FLOW RATES   PERIOD     14   STEP        1
 -----------------------------------------------
   NUMBER   CELLID                    RATE      
 -----------------------------------------------
     1      (1,1,1)              -4994.9821     
     2      (1,1,2)              -4994.9806     
     3      (1,1,3)              -4994.9801     
     4      (1,1,4)              -4994.9808     
     5      (1,1,5)              -4994.9819     
     6      (1,1,6)              -4994.9830     
     7      (1,1,7)              -4994.9845     
     8      (1,1,8)              -4994.9863     
     9      (1,1,9)              -4994.9880     
     10     (1,21,1)             -4994.9863     
     11     (1,21,2)             -4994.9842     
     12     (1,21,3)             -4994.9821     
     13     (1,21,4)             -4994.9806     
     14     (1,21,5)             -4994.9794     
     15     (1,21,6)             -4994.9783     
     16     (1,21,7)             -4994.9781     
     17     (1,21,8)             -4994.9801     
     18     (1,21,9)             -4994.9833     
 -----------------------------------------------




 HEAD WILL BE SAVED ON UNIT 1016 AT END OF TIME STEP    1, STRESS PERIOD   14


  VOLUME BUDGET FOR ENTIRE MODEL AT END OF TIME STEP    1, STRESS PERIOD  14
  ---------------------------------------------------------------------------------------------------

     CUMULATIVE VOLUME      L**3       RATES FOR THIS TIME STEP      L**3/T          PACKAGE NAME    
     ------------------                 ------------------------                     ----------------

           IN:                                      IN:
           ---                                      ---
              STO-SS =    12727577.6949                STO-SS =       18646.4107     STORAGE                          
              STO-SY =      400528.0808                STO-SY =         573.1950     STORAGE                          
                 WEL =           0.0000                   WEL =           0.0000     WEL-1                            
                RCHA =    68490440.5482                  RCHA =      171000.0000     RCH-1                            
                 CHD =           0.0000                   CHD =           0.0000     CHD-FROM-IBOUND                  

            TOTAL IN =    81618546.3239              TOTAL IN =      190219.6057

          OUT:                                     OUT:
          ----                                     ----
              STO-SS =    46683114.4259                STO-SS =       77947.2578     STORAGE                          
              STO-SY =     1429714.3374                STO-SY =        2362.6687     STORAGE                          
                 WEL =       37577.8419                   WEL =       20000.0000     WEL-1                            
                RCHA =           0.0000                  RCHA =           0.0000     RCH-1                            
                 CHD =    33468140.9165                   CHD =       89909.6795     CHD-FROM-IBOUND                  

           TOTAL OUT =    81618547.5216             TOTAL OUT =      190219.6061

            IN - OUT =          -1.1977              IN - OUT =      -3.9597E-04

 PERCENT DISCREPANCY =          -0.00     PERCENT DISCREPANCY =          -0.00




         TIME SUMMARY AT END OF TIME STEP    1 IN STRESS PERIOD   14
                    SECONDS     MINUTES      HOURS       DAYS        YEARS
                    -----------------------------------------------------------
   TIME STEP LENGTH 1.62336E+05  2705.6      45.093      1.8789     5.14413E-03
 STRESS PERIOD TIME 1.62336E+05  2705.6      45.093      1.8789     5.14413E-03
         TOTAL TIME 3.17847E+07 5.29746E+05  8829.1      367.88      1.0072    


end timestep


start timestep kper="14" kstp="2" mode="normal"

 UBDSV1 SAVING     FLOW-JA-FACE ON UNIT   1015 AT TIME STEP      2, STRESS PERIOD     14
 UBDSV06 SAVING              WEL IN MODEL MUMODEL          PACKAGE MUMODEL         CONNECTED TO MODEL MUMODEL          PACKAGE WEL-1            ON UNIT   1015 AT TIME STEP      2, STRESS PERIOD     14
 UBDSV06 SAVING             RCHA IN MODEL MUMODEL          PACKAGE MUMODEL         CONNECTED TO MODEL MUMODEL          PACKAGE RCH-1            ON UNIT   1015 AT TIME STEP      2, STRESS PERIOD     14

 WEL PACKAGE (WEL-1) FLOW RATES   PERIOD     14   STEP        2
 -----------------------------------------------
   NUMBER   CELLID                    RATE      
 -----------------------------------------------
     1      (1,5,5)              -20000.000     
     2      (1,11,5)              0.0000000     
     3      (1,5,5)               0.0000000     
 -----------------------------------------------




 CHD PACKAGE (CHD-FROM-IBOUND) FLOW RATES   PERIOD     14   STEP        2
 -----------------------------------------------
   NUMBER   CELLID                    RATE      
 -----------------------------------------------
     1      (1,1,1)              -4996.5754     
     2      (1,1,2)              -4996.5738     
     3      (1,1,3)              -4996.5733     
     4      (1,1,4)              -4996.5740     
     5      (1,1,5)              -4996.5751     
     6      (1,1,6)              -4996.5762     
     7      (1,1,7)              -4996.5777     
     8      (1,1,8)              -4996.5796     
     9      (1,1,9)              -4996.5812     
     10     (1,21,1)             -4996.5795     
     11     (1,21,2)             -4996.5774     
     12     (1,21,3)             -4996.5753     
     13     (1,21,4)             -4996.5738     
     14     (1,21,5)             -4996.5726     
     15     (1,21,6)             -4996.5715     
     16     (1,21,7)             -4996.5714     
     17     (1,21,8)             -4996.5733     
     18     (1,21,9)             -4996.5765     
 -----------------------------------------------




 HEAD WILL BE SAVED ON UNIT 1016 AT END OF TIME STEP    2, STRESS PERIOD   14


  VOLUME BUDGET FOR ENTIRE MODEL AT END OF TIME STEP    2, STRESS PERIOD  14
  ---------------------------------------------------------------------------------------------------

     CUMULATIVE VOLUME      L**3       RATES FOR THIS TIME STEP      L**3/T          PACKAGE NAME    
     ------------------                 ------------------------                     ----------------

           IN:                                      IN:
           ---                                      ---
              STO-SS =    12768882.6236                STO-SS =       18319.7183     STORAGE                          
              STO-SY =      401799.6399                STO-SY =         563.9667     STORAGE                          
                 WEL =           0.0000                   WEL =           0.0000     WEL-1                            
                RCHA =    68875989.2060                  RCHA =      171000.0000     RCH-1                            
                 CHD =           0.0000                   CHD =           0.0000     CHD-FROM-IBOUND                  

            TOTAL IN =    82046671.4695              TOTAL IN =      189883.6850

          OUT:                                     OUT:
          ----                                     ----
              STO-SS =    46858063.0910                STO-SS =       77593.8941     STORAGE                          
              STO-SY =     1435016.0465                STO-SY =        2351.4341     STORAGE                          
                 WEL =       82671.2522                   WEL =       20000.0000     WEL-1                            
                RCHA =           0.0000                  RCHA =           0.0000     RCH-1                            
                 CHD =    33670922.2791                   CHD =       89938.3575     CHD-FROM-IBOUND                  

           TOTAL OUT =    82046672.6687             TOTAL OUT =      189883.6857

            IN - OUT =          -1.1992              IN - OUT =      -6.6971E-04

 PERCENT DISCREPANCY =          -0.00     PERCENT DISCREPANCY =          -0.00




         TIME SUMMARY AT END OF TIME STEP    2 IN STRESS PERIOD   14
                    SECONDS     MINUTES      HOURS       DAYS        YEARS
                    -----------------------------------------------------------
   TIME STEP LENGTH 1.94804E+05  3246.7      54.112      2.2547     6.17295E-03
 STRESS PERIOD TIME 3.57140E+05  5952.3      99.206      4.1336     1.13171E-02
         TOTAL TIME 3.19795E+07 5.32992E+05  8883.2      370.13      1.0134    


end timestep


start timestep kper="14" kstp="3" mode="normal"

 UBDSV1 SAVING     FLOW-JA-FACE ON UNIT   1015 AT TIME STEP      3, STRESS PERIOD     14
 UBDSV06 SAVING              WEL IN MODEL MUMODEL          PACKAGE MUMODEL         CONNECTED TO MODEL MUMODEL          PACKAGE WEL-1            ON UNIT   1015 AT TIME STEP      3, STRESS PERIOD     14
 UBDSV06 SAVING             RCHA IN MODEL MUMODEL          PACKAGE MUMODEL         CONNECTED TO MODEL MUMODEL          PACKAGE RCH-1            ON UNIT   1015 AT TIME STEP      3, STRESS PERIOD     14

 WEL PACKAGE (WEL-1) FLOW RATES   PERIOD     14   STEP        3
 -----------------------------------------------
   NUMBER   CELLID                    RATE      
 -----------------------------------------------
     1      (1,5,5)              -20000.000     
     2      (1,11,5)              0.0000000     
     3      (1,5,5)               0.0000000     
 -----------------------------------------------




 CHD PACKAGE (CHD-FROM-IBOUND) FLOW RATES   PERIOD     14   STEP        3
 -----------------------------------------------
   NUMBER   CELLID                    RATE      
 -----------------------------------------------
     1      (1,1,1)              -4998.4785     
     2      (1,1,2)              -4998.4770     
     3      (1,1,3)              -4998.4765     
     4      (1,1,4)              -4998.4772     
     5      (1,1,5)              -4998.4782     
     6      (1,1,6)              -4998.4794     
     7      (1,1,7)              -4998.4809     
     8      (1,1,8)              -4998.4827     
     9      (1,1,9)              -4998.4844     
     10     (1,21,1)             -4998.4826     
     11     (1,21,2)             -4998.4805     
     12     (1,21,3)             -4998.4784     
     13     (1,21,4)             -4998.4770     
     14     (1,21,5)             -4998.4758     
     15     (1,21,6)             -4998.4747     
     16     (1,21,7)             -4998.4746     
     17     (1,21,8)             -4998.4765     
     18     (1,21,9)             -4998.4796     
 -----------------------------------------------




 HEAD WILL BE SAVED ON UNIT 1016 AT END OF TIME STEP    3, STRESS PERIOD   14


  VOLUME BUDGET FOR ENTIRE MODEL AT END OF TIME STEP    3, STRESS PERIOD  14
  ---------------------------------------------------------------------------------------------------

     CUMULATIVE VOLUME      L**3       RATES FOR THIS TIME STEP      L**3/T          PACKAGE NAME    
     ------------------                 ------------------------                     ----------------

           IN:                                      IN:
           ---                                      ---
              STO-SS =    12817414.8751                STO-SS =       17937.6732     STORAGE                          
              STO-SY =      403296.2404                STO-SY =         553.1483     STORAGE                          
                 WEL =           0.0000                   WEL =           0.0000     WEL-1                            
                RCHA =    69338647.5954                  RCHA =      171000.0000     RCH-1                            
                 CHD =           0.0000                   CHD =           0.0000     CHD-FROM-IBOUND                  

            TOTAL IN =    82559358.7110              TOTAL IN =      189490.8215

          OUT:                                     OUT:
          ----                                     ----
              STO-SS =    47066881.4996                STO-SS =       77179.9425     STORAGE                          
              STO-SY =     1441342.4686                STO-SY =        2338.2656     STORAGE                          
                 WEL =      136783.3445                   WEL =       20000.0000     WEL-1                            
                RCHA =           0.0000                  RCHA =           0.0000     RCH-1                            
                 CHD =    33914352.6004                   CHD =       89972.6146     CHD-FROM-IBOUND                  

           TOTAL OUT =    82559359.9132             TOTAL OUT =      189490.8226

            IN - OUT =          -1.2022              IN - OUT =      -1.1121E-03

 PERCENT DISCREPANCY =          -0.00     PERCENT DISCREPANCY =          -0.00




         TIME SUMMARY AT END OF TIME STEP    3 IN STRESS PERIOD   14
                    SECONDS     MINUTES      HOURS       DAYS        YEARS
                    -----------------------------------------------------------
   TIME STEP LENGTH 2.33764E+05  3896.1      64.935      2.7056     7.40754E-03
 STRESS PERIOD TIME 5.90904E+05  9848.4      164.14      6.8392     1.87246E-02
         TOTAL TIME 3.22133E+07 5.36888E+05  8948.1      372.84      1.0208    


end timestep


start timestep kper="14" kstp="4" mode="normal"

 UBDSV1 SAVING     FLOW-JA-FACE ON UNIT   1015 AT TIME STEP      4, STRESS PERIOD     14
 UBDSV06 SAVING              WEL IN MODEL MUMODEL          PACKAGE MUMODEL         CONNECTED TO MODEL MUMODEL          PACKAGE WEL-1            ON UNIT   1015 AT TIME STEP      4, STRESS PERIOD     14
 UBDSV06 SAVING             RCHA IN MODEL MUMODEL          PACKAGE MUMODEL         CONNECTED TO MODEL MUMODEL          PACKAGE RCH-1            ON UNIT   1015 AT TIME STEP      4, STRESS PERIOD     14

 WEL PACKAGE (WEL-1) FLOW RATES   PERIOD     14   STEP        4
 -----------------------------------------------
   NUMBER   CELLID                    RATE      
 -----------------------------------------------
     1      (1,5,5)              -20000.000     
     2      (1,11,5)              0.0000000     
     3      (1,5,5)               0.0000000     
 -----------------------------------------------




 CHD PACKAGE (CHD-FROM-IBOUND) FLOW RATES   PERIOD     14   STEP        4
 -----------------------------------------------
   NUMBER   CELLID                    RATE      
 -----------------------------------------------
     1      (1,1,1)              -5000.7500     
     2      (1,1,2)              -5000.7485     
     3      (1,1,3)              -5000.7480     
     4      (1,1,4)              -5000.7487     
     5      (1,1,5)              -5000.7494     
     6      (1,1,6)              -5000.7509     
     7      (1,1,7)              -5000.7523     
     8      (1,1,8)              -5000.7542     
     9      (1,1,9)              -5000.7558     
     10     (1,21,1)             -5000.7540     
     11     (1,21,2)             -5000.7520     
     12     (1,21,3)             -5000.7499     
     13     (1,21,4)             -5000.7485     
     14     (1,21,5)             -5000.7472     
     15     (1,21,6)             -5000.7462     
     16     (1,21,7)             -5000.7461     
     17     (1,21,8)             -5000.7480     
     18     (1,21,9)             -5000.7511     
 -----------------------------------------------




 HEAD WILL BE SAVED ON UNIT 1016 AT END OF TIME STEP    4, STRESS PERIOD   14


  VOLUME BUDGET FOR ENTIRE MODEL AT END OF TIME STEP    4, STRESS PERIOD  14
  ---------------------------------------------------------------------------------------------------

     CUMULATIVE VOLUME      L**3       RATES FOR THIS TIME STEP      L**3/T          PACKAGE NAME    
     ------------------                 ------------------------                     ----------------

           IN:                                      IN:
           ---                                      ---
              STO-SS =    12874210.2111                STO-SS =       17493.1128     STORAGE                          
              STO-SY =      405051.1710                STO-SY =         540.5232     STORAGE                          
                 WEL =           0.0000                   WEL =           0.0000     WEL-1                            
                RCHA =    69893837.6627                  RCHA =      171000.0000     RCH-1                            
                 CHD =           0.0000                   CHD =           0.0000     CHD-FROM-IBOUND                  

            TOTAL IN =    83173099.0448              TOTAL IN =      189033.6360

          OUT:                                     OUT:
          ----                                     ----
              STO-SS =    47315896.3818                STO-SS =       76697.2382     STORAGE                          
              STO-SY =     1448884.2841                STO-SY =        2322.8990     STORAGE                          
                 WEL =      201717.8553                   WEL =       20000.0000     WEL-1                            
                RCHA =           0.0000                  RCHA =           0.0000     RCH-1                            
                 CHD =    34206601.7317                   CHD =       90013.5006     CHD-FROM-IBOUND                  

           TOTAL OUT =    83173100.2529             TOTAL OUT =      189033.6378

            IN - OUT =          -1.2082              IN - OUT =      -1.8325E-03

 PERCENT DISCREPANCY =          -0.00     PERCENT DISCREPANCY =          -0.00




         TIME SUMMARY AT END OF TIME STEP    4 IN STRESS PERIOD   14
                    SECONDS     MINUTES      HOURS       DAYS        YEARS
                    -----------------------------------------------------------
   TIME STEP LENGTH 2.80517E+05  4675.3      77.921      3.2467     8.88905E-03
 STRESS PERIOD TIME 8.71421E+05  14524.      242.06      10.086     2.76137E-02
         TOTAL TIME 3.24938E+07 5.41564E+05  9026.1      376.09      1.0297    


end timestep


start timestep kper="14" kstp="5" mode="normal"

 UBDSV1 SAVING     FLOW-JA-FACE ON UNIT   1015 AT TIME STEP      5, STRESS PERIOD     14
 UBDSV06 SAVING              WEL IN MODEL MUMODEL          PACKAGE MUMODEL         CONNECTED TO MODEL MUMODEL          PACKAGE WEL-1            ON UNIT   1015 AT TIME STEP      5, STRESS PERIOD     14
 UBDSV06 SAVING             RCHA IN MODEL MUMODEL          PACKAGE MUMODEL         CONNECTED TO MODEL MUMODEL          PACKAGE RCH-1            ON UNIT   1015 AT TIME STEP      5, STRESS PERIOD     14

 WEL PACKAGE (WEL-1) FLOW RATES   PERIOD     14   STEP        5
 -----------------------------------------------
   NUMBER   CELLID                    RATE      
 -----------------------------------------------
     1      (1,5,5)              -20000.000     
     2      (1,11,5)              0.0000000     
     3      (1,5,5)               0.0000000     
 -----------------------------------------------




 CHD PACKAGE (CHD-FROM-IBOUND) FLOW RATES   PERIOD     14   STEP        5
 -----------------------------------------------
   NUMBER   CELLID                    RATE      
 -----------------------------------------------
     1      (1,1,1)              -5003.4582     
     2      (1,1,2)              -5003.4568     
     3      (1,1,3)              -5003.4563     
     4      (1,1,4)              -5003.4569     
     5      (1,1,5)              -5003.4569     
     6      (1,1,6)              -5003.4591     
     7      (1,1,7)              -5003.4605     
     8      (1,1,8)              -5003.4624     
     9      (1,1,9)              -5003.4640     
     10     (1,21,1)             -5003.4622     
     11     (1,21,2)             -5003.4602     
     12     (1,21,3)             -5003.4581     
     13     (1,21,4)             -5003.4567     
     14     (1,21,5)             -5003.4555     
     15     (1,21,6)             -5003.4544     
     16     (1,21,7)             -5003.4543     
     17     (1,21,8)             -5003.4562     
     18     (1,21,9)             -5003.4593     
 -----------------------------------------------




 HEAD WILL BE SAVED ON UNIT 1016 AT END OF TIME STEP    5, STRESS PERIOD   14


  VOLUME BUDGET FOR ENTIRE MODEL AT END OF TIME STEP    5, STRESS PERIOD  14
  ---------------------------------------------------------------------------------------------------

     CUMULATIVE VOLUME      L**3       RATES FOR THIS TIME STEP      L**3/T          PACKAGE NAME    
     ------------------                 ------------------------                     ----------------

           IN:                                      IN:
           ---                                      ---
              STO-SS =    12940378.0582                STO-SS =       16983.2257     STORAGE                          
              STO-SY =      407100.5532                STO-SY =         526.0126     STORAGE                          
                 WEL =           0.0000                   WEL =           0.0000     WEL-1                            
                RCHA =    70560065.7434                  RCHA =      171000.0000     RCH-1                            
                 CHD =           0.0000                   CHD =           0.0000     CHD-FROM-IBOUND                  

            TOTAL IN =    83907544.3549              TOTAL IN =      188509.2383

          OUT:                                     OUT:
          ----                                     ----
              STO-SS =    47612550.1581                STO-SS =       76141.7857     STORAGE                          
              STO-SY =     1457865.5244                STO-SY =        2305.2047     STORAGE                          
                 WEL =      279639.2682                   WEL =       20000.0000     WEL-1                            
                RCHA =           0.0000                  RCHA =           0.0000     RCH-1                            
                 CHD =    34557490.6125                   CHD =       90062.2480     CHD-FROM-IBOUND                  

           TOTAL OUT =    83907545.5632             TOTAL OUT =      188509.2383

            IN - OUT =          -1.2083              IN - OUT =      -3.8816E-05

 PERCENT DISCREPANCY =          -0.00     PERCENT DISCREPANCY =          -0.00




         TIME SUMMARY AT END OF TIME STEP    5 IN STRESS PERIOD   14
                    SECONDS     MINUTES      HOURS       DAYS        YEARS
                    -----------------------------------------------------------
   TIME STEP LENGTH 3.36621E+05  5610.3      93.506      3.8961     1.06669E-02
 STRESS PERIOD TIME 1.20804E+06  20134.      335.57      13.982     3.82805E-02
         TOTAL TIME 3.28304E+07 5.47174E+05  9119.6      379.98      1.0403    


end timestep


start timestep kper="14" kstp="6" mode="normal"

 UBDSV1 SAVING     FLOW-JA-FACE ON UNIT   1015 AT TIME STEP      6, STRESS PERIOD     14
 UBDSV06 SAVING              WEL IN MODEL MUMODEL          PACKAGE MUMODEL         CONNECTED TO MODEL MUMODEL          PACKAGE WEL-1            ON UNIT   1015 AT TIME STEP      6, STRESS PERIOD     14
 UBDSV06 SAVING             RCHA IN MODEL MUMODEL          PACKAGE MUMODEL         CONNECTED TO MODEL MUMODEL          PACKAGE RCH-1            ON UNIT   1015 AT TIME STEP      6, STRESS PERIOD     14

 WEL PACKAGE (WEL-1) FLOW RATES   PERIOD     14   STEP        6
 -----------------------------------------------
   NUMBER   CELLID                    RATE      
 -----------------------------------------------
     1      (1,5,5)              -20000.000     
     2      (1,11,5)              0.0000000     
     3      (1,5,5)               0.0000000     
 -----------------------------------------------




 CHD PACKAGE (CHD-FROM-IBOUND) FLOW RATES   PERIOD     14   STEP        6
 -----------------------------------------------
   NUMBER   CELLID                    RATE      
 -----------------------------------------------
     1      (1,1,1)              -5006.6833     
     2      (1,1,2)              -5006.6819     
     3      (1,1,3)              -5006.6814     
     4      (1,1,4)              -5006.6819     
     5      (1,1,5)              -5006.6803     
     6      (1,1,6)              -5006.6841     
     7      (1,1,7)              -5006.6856     
     8      (1,1,8)              -5006.6874     
     9      (1,1,9)              -5006.6891     
     10     (1,21,1)             -5006.6873     
     11     (1,21,2)             -5006.6852     
     12     (1,21,3)             -5006.6832     
     13     (1,21,4)             -5006.6818     
     14     (1,21,5)             -5006.6806     
     15     (1,21,6)             -5006.6795     
     16     (1,21,7)             -5006.6795     
     17     (1,21,8)             -5006.6814     
     18     (1,21,9)             -5006.6844     
 -----------------------------------------------




 HEAD WILL BE SAVED ON UNIT 1016 AT END OF TIME STEP    6, STRESS PERIOD   14


  VOLUME BUDGET FOR ENTIRE MODEL AT END OF TIME STEP    6, STRESS PERIOD  14
  ---------------------------------------------------------------------------------------------------

     CUMULATIVE VOLUME      L**3       RATES FOR THIS TIME STEP      L**3/T          PACKAGE NAME    
     ------------------                 ------------------------                     ----------------

           IN:                                      IN:
           ---                                      ---
              STO-SS =    13019231.9666                STO-SS =       16866.1188     STORAGE                          
              STO-SY =      409549.3426                STO-SY =         523.7733     STORAGE                          
                 WEL =           0.0000                   WEL =           0.0000     WEL-1                            
                RCHA =    71359539.4403                  RCHA =      171000.0000     RCH-1                            
                 CHD =           0.0000                   CHD =           0.0000     CHD-FROM-IBOUND                  

            TOTAL IN =    84788320.7494              TOTAL IN =      188389.8921

          OUT:                                     OUT:
          ----                                     ----
              STO-SS =    47967732.9806                STO-SS =       75970.3076     STORAGE                          
              STO-SY =     1468615.3453                STO-SY =        2299.2869     STORAGE                          
                 WEL =      373144.9638                   WEL =       20000.0000     WEL-1                            
                RCHA =           0.0000                  RCHA =           0.0000     RCH-1                            
                 CHD =    34978828.6684                   CHD =       90120.2977     CHD-FROM-IBOUND                  

           TOTAL OUT =    84788321.9581             TOTAL OUT =      188389.8921

            IN - OUT =          -1.2086              IN - OUT =      -6.4157E-05

 PERCENT DISCREPANCY =          -0.00     PERCENT DISCREPANCY =          -0.00




         TIME SUMMARY AT END OF TIME STEP    6 IN STRESS PERIOD   14
                    SECONDS     MINUTES      HOURS       DAYS        YEARS
                    -----------------------------------------------------------
   TIME STEP LENGTH 4.03945E+05  6732.4      112.21      4.6753     1.28002E-02
 STRESS PERIOD TIME 1.61199E+06  26866.      447.77      18.657     5.10808E-02
         TOTAL TIME 3.32344E+07 5.53906E+05  9231.8      384.66      1.0531    


end timestep


start timestep kper="14" kstp="7" mode="normal"

 UBDSV1 SAVING     FLOW-JA-FACE ON UNIT   1015 AT TIME STEP      7, STRESS PERIOD     14
 UBDSV06 SAVING              WEL IN MODEL MUMODEL          PACKAGE MUMODEL         CONNECTED TO MODEL MUMODEL          PACKAGE WEL-1            ON UNIT   1015 AT TIME STEP      7, STRESS PERIOD     14
 UBDSV06 SAVING             RCHA IN MODEL MUMODEL          PACKAGE MUMODEL         CONNECTED TO MODEL MUMODEL          PACKAGE RCH-1            ON UNIT   1015 AT TIME STEP      7, STRESS PERIOD     14

 WEL PACKAGE (WEL-1) FLOW RATES   PERIOD     14   STEP        7
 -----------------------------------------------
   NUMBER   CELLID                    RATE      
 -----------------------------------------------
     1      (1,5,5)              -20000.000     
     2      (1,11,5)              0.0000000     
     3      (1,5,5)               0.0000000     
 -----------------------------------------------




 CHD PACKAGE (CHD-FROM-IBOUND) FLOW RATES   PERIOD     14   STEP        7
 -----------------------------------------------
   NUMBER   CELLID                    RATE      
 -----------------------------------------------
     1      (1,1,1)              -5010.5185     
     2      (1,1,2)              -5010.5171     
     3      (1,1,3)              -5010.5166     
     4      (1,1,4)              -5010.5168     
     5      (1,1,5)              -5010.5113     
     6      (1,1,6)              -5010.5189     
     7      (1,1,7)              -5010.5208     
     8      (1,1,8)              -5010.5226     
     9      (1,1,9)              -5010.5242     
     10     (1,21,1)             -5010.5224     
     11     (1,21,2)             -5010.5204     
     12     (1,21,3)             -5010.5184     
     13     (1,21,4)             -5010.5169     
     14     (1,21,5)             -5010.5158     
     15     (1,21,6)             -5010.5148     
     16     (1,21,7)             -5010.5147     
     17     (1,21,8)             -5010.5166     
     18     (1,21,9)             -5010.5196     
 -----------------------------------------------




 HEAD WILL BE SAVED ON UNIT 1016 AT END OF TIME STEP    7, STRESS PERIOD   14


  VOLUME BUDGET FOR ENTIRE MODEL AT END OF TIME STEP    7, STRESS PERIOD  14
  ---------------------------------------------------------------------------------------------------

     CUMULATIVE VOLUME      L**3       RATES FOR THIS TIME STEP      L**3/T          PACKAGE NAME    
     ------------------                 ------------------------                     ----------------

           IN:                                      IN:
           ---                                      ---
              STO-SS =    13113337.3802                STO-SS =       16773.5618     STORAGE                          
              STO-SY =      412479.9016                STO-SY =         522.3495     STORAGE                          
                 WEL =           0.0000                   WEL =           0.0000     WEL-1                            
                RCHA =    72318907.8765                  RCHA =      171000.0000     RCH-1                            
                 CHD =           0.0000                   CHD =           0.0000     CHD-FROM-IBOUND                  

            TOTAL IN =    85844725.1583              TOTAL IN =      188295.9112

          OUT:                                     OUT:
          ----                                     ----
              STO-SS =    48393069.5341                STO-SS =       75812.9493     STORAGE                          
              STO-SY =     1481483.4263                STO-SY =        2293.6359     STORAGE                          
                 WEL =      485351.7984                   WEL =       20000.0000     WEL-1                            
                RCHA =           0.0000                  RCHA =           0.0000     RCH-1                            
                 CHD =    35484821.6088                   CHD =       90189.3262     CHD-FROM-IBOUND                  

           TOTAL OUT =    85844726.3675             TOTAL OUT =      188295.9113

            IN - OUT =          -1.2092              IN - OUT =      -1.0442E-04

 PERCENT DISCREPANCY =          -0.00     PERCENT DISCREPANCY =          -0.00




         TIME SUMMARY AT END OF TIME STEP    7 IN STRESS PERIOD   14
                    SECONDS     MINUTES      HOURS       DAYS        YEARS
                    -----------------------------------------------------------
   TIME STEP LENGTH 4.84734E+05  8078.9      134.65      5.6103     1.53603E-02
 STRESS PERIOD TIME 2.09672E+06  34945.      582.42      24.268     6.64410E-02
         TOTAL TIME 3.37191E+07 5.61985E+05  9366.4      390.27      1.0685    


end timestep


start timestep kper="14" kstp="8" mode="normal"

 UBDSV1 SAVING     FLOW-JA-FACE ON UNIT   1015 AT TIME STEP      8, STRESS PERIOD     14
 UBDSV06 SAVING              WEL IN MODEL MUMODEL          PACKAGE MUMODEL         CONNECTED TO MODEL MUMODEL          PACKAGE WEL-1            ON UNIT   1015 AT TIME STEP      8, STRESS PERIOD     14
 UBDSV06 SAVING             RCHA IN MODEL MUMODEL          PACKAGE MUMODEL         CONNECTED TO MODEL MUMODEL          PACKAGE RCH-1            ON UNIT   1015 AT TIME STEP      8, STRESS PERIOD     14

 WEL PACKAGE (WEL-1) FLOW RATES   PERIOD     14   STEP        8
 -----------------------------------------------
   NUMBER   CELLID                    RATE      
 -----------------------------------------------
     1      (1,5,5)              -20000.000     
     2      (1,11,5)              0.0000000     
     3      (1,5,5)               0.0000000     
 -----------------------------------------------




 CHD PACKAGE (CHD-FROM-IBOUND) FLOW RATES   PERIOD     14   STEP        8
 -----------------------------------------------
   NUMBER   CELLID                    RATE      
 -----------------------------------------------
     1      (1,1,1)              -5015.0717     
     2      (1,1,2)              -5015.0703     
     3      (1,1,3)              -5015.0697     
     4      (1,1,4)              -5015.0692     
     5      (1,1,5)              -5015.0550     
     6      (1,1,6)              -5015.0713     
     7      (1,1,7)              -5015.0739     
     8      (1,1,8)              -5015.0757     
     9      (1,1,9)              -5015.0773     
     10     (1,21,1)             -5015.0755     
     11     (1,21,2)             -5015.0735     
     12     (1,21,3)             -5015.0715     
     13     (1,21,4)             -5015.0701     
     14     (1,21,5)             -5015.0689     
     15     (1,21,6)             -5015.0680     
     16     (1,21,7)             -5015.0679     
     17     (1,21,8)             -5015.0698     
     18     (1,21,9)             -5015.0728     
 -----------------------------------------------




 HEAD WILL BE SAVED ON UNIT 1016 AT END OF TIME STEP    8, STRESS PERIOD   14


  VOLUME BUDGET FOR ENTIRE MODEL AT END OF TIME STEP    8, STRESS PERIOD  14
  ---------------------------------------------------------------------------------------------------

     CUMULATIVE VOLUME      L**3       RATES FOR THIS TIME STEP      L**3/T          PACKAGE NAME    
     ------------------                 ------------------------                     ----------------

           IN:                                      IN:
           ---                                      ---
              STO-SS =    13225370.4116                STO-SS =       16640.8508     STORAGE                          
              STO-SY =      415979.1223                STO-SY =         519.7575     STORAGE                          
                 WEL =           0.0000                   WEL =           0.0000     WEL-1                            
                RCHA =    73470150.0000                  RCHA =      171000.0000     RCH-1                            
                 CHD =           0.0000                   CHD =           0.0000     CHD-FROM-IBOUND                  

            TOTAL IN =    87111499.5339              TOTAL IN =      188160.6083

          OUT:                                     OUT:
          ----                                     ----
              STO-SS =    48902060.7565                STO-SS =       75603.1223     STORAGE                          
              STO-SY =     1496875.1560                STO-SY =        2286.2139     STORAGE                          
                 WEL =      620000.0000                   WEL =       20000.0000     WEL-1                            
                RCHA =           0.0000                  RCHA =           0.0000     RCH-1                            
                 CHD =    36092564.8317                   CHD =       90271.2722     CHD-FROM-IBOUND                  

           TOTAL OUT =    87111500.7442             TOTAL OUT =      188160.6084

            IN - OUT =          -1.2103              IN - OUT =      -1.6424E-04

 PERCENT DISCREPANCY =          -0.00     PERCENT DISCREPANCY =          -0.00




         TIME SUMMARY AT END OF TIME STEP    8 IN STRESS PERIOD   14
                    SECONDS     MINUTES      HOURS       DAYS        YEARS
                    -----------------------------------------------------------
   TIME STEP LENGTH 5.81680E+05  9694.7      161.58      6.7324     1.84323E-02
 STRESS PERIOD TIME 2.67840E+06  44640.      744.00      31.000     8.48734E-02
         TOTAL TIME 3.43008E+07 5.71680E+05  9528.0      397.00      1.0869    


end timestep


start timestep kper="15" kstp="1" mode="normal"


 OUTPUT CONTROL FOR STRESS PERIOD 15 IS REPEATED USING SETTINGS FROM A PREVIOUS STRESS PERIOD.


 STRESS PERIOD 15 IS TRANSIENT


 REUSING WELS FROM LAST STRESS PERIOD

 REUSING CHDS FROM LAST STRESS PERIOD
 UBDSV1 SAVING     FLOW-JA-FACE ON UNIT   1015 AT TIME STEP      1, STRESS PERIOD     15
 UBDSV06 SAVING              WEL IN MODEL MUMODEL          PACKAGE MUMODEL         CONNECTED TO MODEL MUMODEL          PACKAGE WEL-1            ON UNIT   1015 AT TIME STEP      1, STRESS PERIOD     15
 UBDSV06 SAVING             RCHA IN MODEL MUMODEL          PACKAGE MUMODEL         CONNECTED TO MODEL MUMODEL          PACKAGE RCH-1            ON UNIT   1015 AT TIME STEP      1, STRESS PERIOD     15

 WEL PACKAGE (WEL-1) FLOW RATES   PERIOD     15   STEP        1
 -----------------------------------------------
   NUMBER   CELLID                    RATE      
 -----------------------------------------------
     1      (1,5,5)              -20000.000     
     2      (1,11,5)              0.0000000     
     3      (1,5,5)               0.0000000     
 -----------------------------------------------




 CHD PACKAGE (CHD-FROM-IBOUND) FLOW RATES   PERIOD     15   STEP        1
 -----------------------------------------------
   NUMBER   CELLID                    RATE      
 -----------------------------------------------
     1      (1,1,1)              -5022.5401     
     2      (1,1,2)              -5022.5388     
     3      (1,1,3)              -5022.5382     
     4      (1,1,4)              -5022.5374     
     5      (1,1,5)              -5022.5207     
     6      (1,1,6)              -5022.5396     
     7      (1,1,7)              -5022.5423     
     8      (1,1,8)              -5022.5442     
     9      (1,1,9)              -5022.5458     
     10     (1,21,1)             -5022.5439     
     11     (1,21,2)             -5022.5420     
     12     (1,21,3)             -5022.5400     
     13     (1,21,4)             -5022.5386     
     14     (1,21,5)             -5022.5374     
     15     (1,21,6)             -5022.5364     
     16     (1,21,7)             -5022.5364     
     17     (1,21,8)             -5022.5383     
     18     (1,21,9)             -5022.5412     
 -----------------------------------------------




 HEAD WILL BE SAVED ON UNIT 1016 AT END OF TIME STEP    1, STRESS PERIOD   15


  VOLUME BUDGET FOR ENTIRE MODEL AT END OF TIME STEP    1, STRESS PERIOD  15
  ---------------------------------------------------------------------------------------------------

     CUMULATIVE VOLUME      L**3       RATES FOR THIS TIME STEP      L**3/T          PACKAGE NAME    
     ------------------                 ------------------------                     ----------------

           IN:                                      IN:
           ---                                      ---
              STO-SS =    13247138.3454                STO-SS =       12826.8209     STORAGE                          
              STO-SY =      416661.4685                STO-SY =         402.0746     STORAGE                          
                 WEL =           0.0000                   WEL =           0.0000     WEL-1                            
                RCHA =    74340743.7435                  RCHA =      513000.0000     RCH-1                            
                 CHD =           0.0000                   CHD =           0.0000     CHD-FROM-IBOUND                  

            TOTAL IN =    88004543.5574              TOTAL IN =      526228.8955

          OUT:                                     OUT:
          ----                                     ----
              STO-SS =    49586792.5931                STO-SS =      403480.3085     STORAGE                          
              STO-SY =     1517821.8221                STO-SY =       12342.8864     STORAGE                          
                 WEL =      653941.2765                   WEL =       20000.0000     WEL-1                            
                RCHA =           0.0000                  RCHA =           0.0000     RCH-1                            
                 CHD =    36245989.0773                   CHD =       90405.7014     CHD-FROM-IBOUND                  

           TOTAL OUT =    88004544.7691             TOTAL OUT =      526228.8963

            IN - OUT =          -1.2116              IN - OUT =      -7.7585E-04

 PERCENT DISCREPANCY =          -0.00     PERCENT DISCREPANCY =          -0.00




         TIME SUMMARY AT END OF TIME STEP    1 IN STRESS PERIOD   15
                    SECONDS     MINUTES      HOURS       DAYS        YEARS
                    -----------------------------------------------------------
   TIME STEP LENGTH 1.46626E+05  2443.8      40.730      1.6971     4.64631E-03
 STRESS PERIOD TIME 1.46626E+05  2443.8      40.730      1.6971     4.64631E-03
         TOTAL TIME 3.44474E+07 5.74124E+05  9568.7      398.70      1.0916    


end timestep


start timestep kper="15" kstp="2" mode="normal"

 UBDSV1 SAVING     FLOW-JA-FACE ON UNIT   1015 AT TIME STEP      2, STRESS PERIOD     15
 UBDSV06 SAVING              WEL IN MODEL MUMODEL          PACKAGE MUMODEL         CONNECTED TO MODEL MUMODEL          PACKAGE WEL-1            ON UNIT   1015 AT TIME STEP      2, STRESS PERIOD     15
 UBDSV06 SAVING             RCHA IN MODEL MUMODEL          PACKAGE MUMODEL         CONNECTED TO MODEL MUMODEL          PACKAGE RCH-1            ON UNIT   1015 AT TIME STEP      2, STRESS PERIOD     15

 WEL PACKAGE (WEL-1) FLOW RATES   PERIOD     15   STEP        2
 -----------------------------------------------
   NUMBER   CELLID                    RATE      
 -----------------------------------------------
     1      (1,5,5)              -20000.000     
     2      (1,11,5)              0.0000000     
     3      (1,5,5)               0.0000000     
 -----------------------------------------------




 CHD PACKAGE (CHD-FROM-IBOUND) FLOW RATES   PERIOD     15   STEP        2
 -----------------------------------------------
   NUMBER   CELLID                    RATE      
 -----------------------------------------------
     1      (1,1,1)              -5031.4687     
     2      (1,1,2)              -5031.4673     
     3      (1,1,3)              -5031.4668     
     4      (1,1,4)              -5031.4657     
     5      (1,1,5)              -5031.4456     
     6      (1,1,6)              -5031.4678     
     7      (1,1,7)              -5031.4709     
     8      (1,1,8)              -5031.4727     
     9      (1,1,9)              -5031.4743     
     10     (1,21,1)             -5031.4725     
     11     (1,21,2)             -5031.4705     
     12     (1,21,3)             -5031.4686     
     13     (1,21,4)             -5031.4671     
     14     (1,21,5)             -5031.4660     
     15     (1,21,6)             -5031.4650     
     16     (1,21,7)             -5031.4650     
     17     (1,21,8)             -5031.4669     
     18     (1,21,9)             -5031.4698     
 -----------------------------------------------




 HEAD WILL BE SAVED ON UNIT 1016 AT END OF TIME STEP    2, STRESS PERIOD   15


  VOLUME BUDGET FOR ENTIRE MODEL AT END OF TIME STEP    2, STRESS PERIOD  15
  ---------------------------------------------------------------------------------------------------

     CUMULATIVE VOLUME      L**3       RATES FOR THIS TIME STEP      L**3/T          PACKAGE NAME    
     ------------------                 ------------------------                     ----------------

           IN:                                      IN:
           ---                                      ---
              STO-SS =    13272808.1360                STO-SS =       12605.0015     STORAGE                          
              STO-SY =      417466.8751                STO-SY =         395.4902     STORAGE                          
                 WEL =           0.0000                   WEL =           0.0000     WEL-1                            
                RCHA =    75385456.2357                  RCHA =      513000.0000     RCH-1                            
                 CHD =           0.0000                   CHD =           0.0000     CHD-FROM-IBOUND                  

            TOTAL IN =    89075731.2467              TOTAL IN =      526000.4917

          OUT:                                     OUT:
          ----                                     ----
              STO-SS =    50407709.3154                STO-SS =      403106.3874     STORAGE                          
              STO-SY =     1542926.8836                STO-SY =       12327.6946     STORAGE                          
                 WEL =      694670.8084                   WEL =       20000.0000     WEL-1                            
                RCHA =           0.0000                  RCHA =           0.0000     RCH-1                            
                 CHD =    36430425.4536                   CHD =       90566.4111     CHD-FROM-IBOUND                  

           TOTAL OUT =    89075732.4610             TOTAL OUT =      526000.4931

            IN - OUT =          -1.2143              IN - OUT =      -1.3229E-03

 PERCENT DISCREPANCY =          -0.00     PERCENT DISCREPANCY =          -0.00




         TIME SUMMARY AT END OF TIME STEP    2 IN STRESS PERIOD   15
                    SECONDS     MINUTES      HOURS       DAYS        YEARS
                    -----------------------------------------------------------
   TIME STEP LENGTH 1.75952E+05  2932.5      48.875      2.0365     5.57557E-03
 STRESS PERIOD TIME 3.22578E+05  5376.3      89.605      3.7335     1.02219E-02
         TOTAL TIME 3.46234E+07 5.77056E+05  9617.6      400.73      1.0971    


end timestep


start timestep kper="15" kstp="3" mode="normal"

 UBDSV1 SAVING     FLOW-JA-FACE ON UNIT   1015 AT TIME STEP      3, STRESS PERIOD     15
 UBDSV06 SAVING              WEL IN MODEL MUMODEL          PACKAGE MUMODEL         CONNECTED TO MODEL MUMODEL          PACKAGE WEL-1            ON UNIT   1015 AT TIME STEP      3, STRESS PERIOD     15
 UBDSV06 SAVING             RCHA IN MODEL MUMODEL          PACKAGE MUMODEL         CONNECTED TO MODEL MUMODEL          PACKAGE RCH-1            ON UNIT   1015 AT TIME STEP      3, STRESS PERIOD     15

 WEL PACKAGE (WEL-1) FLOW RATES   PERIOD     15   STEP        3
 -----------------------------------------------
   NUMBER   CELLID                    RATE      
 -----------------------------------------------
     1      (1,5,5)              -20000.000     
     2      (1,11,5)              0.0000000     
     3      (1,5,5)               0.0000000     
 -----------------------------------------------




 CHD PACKAGE (CHD-FROM-IBOUND) FLOW RATES   PERIOD     15   STEP        3
 -----------------------------------------------
   NUMBER   CELLID                    RATE      
 -----------------------------------------------
     1      (1,1,1)              -5042.1354     
     2      (1,1,2)              -5042.1341     
     3      (1,1,3)              -5042.1335     
     4      (1,1,4)              -5042.1319     
     5      (1,1,5)              -5042.1071     
     6      (1,1,6)              -5042.1340     
     7      (1,1,7)              -5042.1376     
     8      (1,1,8)              -5042.1395     
     9      (1,1,9)              -5042.1410     
     10     (1,21,1)             -5042.1392     
     11     (1,21,2)             -5042.1372     
     12     (1,21,3)             -5042.1353     
     13     (1,21,4)             -5042.1339     
     14     (1,21,5)             -5042.1327     
     15     (1,21,6)             -5042.1318     
     16     (1,21,7)             -5042.1317     
     17     (1,21,8)             -5042.1336     
     18     (1,21,9)             -5042.1365     
 -----------------------------------------------




 HEAD WILL BE SAVED ON UNIT 1016 AT END OF TIME STEP    3, STRESS PERIOD   15


  VOLUME BUDGET FOR ENTIRE MODEL AT END OF TIME STEP    3, STRESS PERIOD  15
  ---------------------------------------------------------------------------------------------------

     CUMULATIVE VOLUME      L**3       RATES FOR THIS TIME STEP      L**3/T          PACKAGE NAME    
     ------------------                 ------------------------                     ----------------

           IN:                                      IN:
           ---                                      ---
              STO-SS =    13302975.8876                STO-SS =       12344.7493     STORAGE                          
              STO-SY =      418414.4506                STO-SY =         387.7512     STORAGE                          
                 WEL =           0.0000                   WEL =           0.0000     WEL-1                            
                RCHA =    76639111.2263                  RCHA =      513000.0000     RCH-1                            
                 CHD =           0.0000                   CHD =           0.0000     CHD-FROM-IBOUND                  

            TOTAL IN =    90360501.5644              TOTAL IN =      525732.5005

          OUT:                                     OUT:
          ----                                     ----
              STO-SS =    51391729.2717                STO-SS =      402664.4024     STORAGE                          
              STO-SY =     1573008.9691                STO-SY =       12309.6944     STORAGE                          
                 WEL =      743546.2466                   WEL =       20000.0000     WEL-1                            
                RCHA =           0.0000                  RCHA =           0.0000     RCH-1                            
                 CHD =    36652218.2968                   CHD =       90758.4060     CHD-FROM-IBOUND                  

           TOTAL OUT =    90360502.7843             TOTAL OUT =      525732.5028

            IN - OUT =          -1.2198              IN - OUT =      -2.2435E-03

 PERCENT DISCREPANCY =          -0.00     PERCENT DISCREPANCY =          -0.00




         TIME SUMMARY AT END OF TIME STEP    3 IN STRESS PERIOD   15
                    SECONDS     MINUTES      HOURS       DAYS        YEARS
                    -----------------------------------------------------------
   TIME STEP LENGTH 2.11142E+05  3519.0      58.651      2.4438     6.69068E-03
 STRESS PERIOD TIME 5.33720E+05  8895.3      148.26      6.1773     1.69126E-02
         TOTAL TIME 3.48345E+07 5.80575E+05  9676.3      403.18      1.1038    


end timestep


start timestep kper="15" kstp="4" mode="normal"

 UBDSV1 SAVING     FLOW-JA-FACE ON UNIT   1015 AT TIME STEP      4, STRESS PERIOD     15
 UBDSV06 SAVING              WEL IN MODEL MUMODEL          PACKAGE MUMODEL         CONNECTED TO MODEL MUMODEL          PACKAGE WEL-1            ON UNIT   1015 AT TIME STEP      4, STRESS PERIOD     15
 UBDSV06 SAVING             RCHA IN MODEL MUMODEL          PACKAGE MUMODEL         CONNECTED TO MODEL MUMODEL          PACKAGE RCH-1            ON UNIT   1015 AT TIME STEP      4, STRESS PERIOD     15

 WEL PACKAGE (WEL-1) FLOW RATES   PERIOD     15   STEP        4
 -----------------------------------------------
   NUMBER   CELLID                    RATE      
 -----------------------------------------------
     1      (1,5,5)              -20000.000     
     2      (1,11,5)              0.0000000     
     3      (1,5,5)               0.0000000     
 -----------------------------------------------




 CHD PACKAGE (CHD-FROM-IBOUND) FLOW RATES   PERIOD     15   STEP        4
 -----------------------------------------------
   NUMBER   CELLID                    RATE      
 -----------------------------------------------
     1      (1,1,1)              -5054.8678     
     2      (1,1,2)              -5054.8664     
     3      (1,1,3)              -5054.8658     
     4      (1,1,4)              -5054.8635     
     5      (1,1,5)              -5054.8319     
     6      (1,1,6)              -5054.8656     
     7      (1,1,7)              -5054.8699     
     8      (1,1,8)              -5054.8718     
     9      (1,1,9)              -5054.8734     
     10     (1,21,1)             -5054.8715     
     11     (1,21,2)             -5054.8696     
     12     (1,21,3)             -5054.8676     
     13     (1,21,4)             -5054.8662     
     14     (1,21,5)             -5054.8651     
     15     (1,21,6)             -5054.8641     
     16     (1,21,7)             -5054.8641     
     17     (1,21,8)             -5054.8660     
     18     (1,21,9)             -5054.8689     
 -----------------------------------------------




 HEAD WILL BE SAVED ON UNIT 1016 AT END OF TIME STEP    4, STRESS PERIOD   15


  VOLUME BUDGET FOR ENTIRE MODEL AT END OF TIME STEP    4, STRESS PERIOD  15
  ---------------------------------------------------------------------------------------------------

     CUMULATIVE VOLUME      L**3       RATES FOR THIS TIME STEP      L**3/T          PACKAGE NAME    
     ------------------                 ------------------------                     ----------------

           IN:                                      IN:
           ---                                      ---
              STO-SS =    13338285.6494                STO-SS =       12040.7315     STORAGE                          
              STO-SY =      419524.9734                STO-SY =         378.6915     STORAGE                          
                 WEL =           0.0000                   WEL =           0.0000     WEL-1                            
                RCHA =    78143497.2150                  RCHA =      513000.0000     RCH-1                            
                 CHD =           0.0000                   CHD =           0.0000     CHD-FROM-IBOUND                  

            TOTAL IN =    91901307.8378              TOTAL IN =      525419.4230

          OUT:                                     OUT:
          ----                                     ----
              STO-SS =    52571025.4562                STO-SS =      402143.4307     STORAGE                          
              STO-SY =     1609045.0745                STO-SY =       12288.4168     STORAGE                          
                 WEL =      802196.7725                   WEL =       20000.0000     WEL-1                            
                RCHA =           0.0000                  RCHA =           0.0000     RCH-1                            
                 CHD =    36919041.7654                   CHD =       90987.5793     CHD-FROM-IBOUND                  

           TOTAL OUT =    91901309.0687             TOTAL OUT =      525419.4268

            IN - OUT =          -1.2309              IN - OUT =      -3.7834E-03

 PERCENT DISCREPANCY =          -0.00     PERCENT DISCREPANCY =          -0.00




         TIME SUMMARY AT END OF TIME STEP    4 IN STRESS PERIOD   15
                    SECONDS     MINUTES      HOURS       DAYS        YEARS
                    -----------------------------------------------------------
   TIME STEP LENGTH 2.53370E+05  4222.8      70.381      2.9325     8.02882E-03
 STRESS PERIOD TIME 7.87090E+05  13118.      218.64      9.1098     2.49414E-02
         TOTAL TIME 3.50879E+07 5.84798E+05  9746.6      406.11      1.1119    


end timestep


start timestep kper="15" kstp="5" mode="normal"

 UBDSV1 SAVING     FLOW-JA-FACE ON UNIT   1015 AT TIME STEP      5, STRESS PERIOD     15
 UBDSV06 SAVING              WEL IN MODEL MUMODEL          PACKAGE MUMODEL         CONNECTED TO MODEL MUMODEL          PACKAGE WEL-1            ON UNIT   1015 AT TIME STEP      5, STRESS PERIOD     15
 UBDSV06 SAVING             RCHA IN MODEL MUMODEL          PACKAGE MUMODEL         CONNECTED TO MODEL MUMODEL          PACKAGE RCH-1            ON UNIT   1015 AT TIME STEP      5, STRESS PERIOD     15

 WEL PACKAGE (WEL-1) FLOW RATES   PERIOD     15   STEP        5
 -----------------------------------------------
   NUMBER   CELLID                    RATE      
 -----------------------------------------------
     1      (1,5,5)              -20000.000     
     2      (1,11,5)              0.0000000     
     3      (1,5,5)               0.0000000     
 -----------------------------------------------




 CHD PACKAGE (CHD-FROM-IBOUND) FLOW RATES   PERIOD     15   STEP        5
 -----------------------------------------------
   NUMBER   CELLID                    RATE      
 -----------------------------------------------
     1      (1,1,1)              -5070.0504     
     2      (1,1,2)              -5070.0490     
     3      (1,1,3)              -5070.0483     
     4      (1,1,4)              -5070.0450     
     5      (1,1,5)              -5070.0033     
     6      (1,1,6)              -5070.0471     
     7      (1,1,7)              -5070.0524     
     8      (1,1,8)              -5070.0544     
     9      (1,1,9)              -5070.0559     
     10     (1,21,1)             -5070.0540     
     11     (1,21,2)             -5070.0522     
     12     (1,21,3)             -5070.0502     
     13     (1,21,4)             -5070.0488     
     14     (1,21,5)             -5070.0477     
     15     (1,21,6)             -5070.0467     
     16     (1,21,7)             -5070.0467     
     17     (1,21,8)             -5070.0486     
     18     (1,21,9)             -5070.0515     
 -----------------------------------------------




 HEAD WILL BE SAVED ON UNIT 1016 AT END OF TIME STEP    5, STRESS PERIOD   15


  VOLUME BUDGET FOR ENTIRE MODEL AT END OF TIME STEP    5, STRESS PERIOD  15
  ---------------------------------------------------------------------------------------------------

     CUMULATIVE VOLUME      L**3       RATES FOR THIS TIME STEP      L**3/T          PACKAGE NAME    
     ------------------                 ------------------------                     ----------------

           IN:                                      IN:
           ---                                      ---
              STO-SS =    13379414.0305                STO-SS =       11687.4147     STORAGE                          
              STO-SY =      420820.4575                STO-SY =         368.1365     STORAGE                          
                 WEL =           0.0000                   WEL =           0.0000     WEL-1                            
                RCHA =    79948760.4015                  RCHA =      513000.0000     RCH-1                            
                 CHD =           0.0000                   CHD =           0.0000     CHD-FROM-IBOUND                  

            TOTAL IN =    93748994.8895              TOTAL IN =      525055.5513

          OUT:                                     OUT:
          ----                                     ----
              STO-SS =    53984027.0230                STO-SS =      401531.3718     STORAGE                          
              STO-SY =     1652200.1321                STO-SY =       12263.3335     STORAGE                          
                 WEL =      872577.4036                   WEL =       20000.0000     WEL-1                            
                RCHA =           0.0000                  RCHA =           0.0000     RCH-1                            
                 CHD =    37240191.5842                   CHD =       91260.8523     CHD-FROM-IBOUND                  

           TOTAL OUT =    93748996.1428             TOTAL OUT =      525055.5576

            IN - OUT =          -1.2533              IN - OUT =      -6.3702E-03

 PERCENT DISCREPANCY =          -0.00     PERCENT DISCREPANCY =          -0.00




         TIME SUMMARY AT END OF TIME STEP    5 IN STRESS PERIOD   15
                    SECONDS     MINUTES      HOURS       DAYS        YEARS
                    -----------------------------------------------------------
   TIME STEP LENGTH 3.04044E+05  5067.4      84.457      3.5190     9.63458E-03
 STRESS PERIOD TIME 1.09113E+06  18186.      303.09      12.629     3.45760E-02
         TOTAL TIME 3.53919E+07 5.89866E+05  9831.1      409.63      1.1215    


end timestep


start timestep kper="15" kstp="6" mode="normal"

 UBDSV1 SAVING     FLOW-JA-FACE ON UNIT   1015 AT TIME STEP      6, STRESS PERIOD     15
 UBDSV06 SAVING              WEL IN MODEL MUMODEL          PACKAGE MUMODEL         CONNECTED TO MODEL MUMODEL          PACKAGE WEL-1            ON UNIT   1015 AT TIME STEP      6, STRESS PERIOD     15
 UBDSV06 SAVING             RCHA IN MODEL MUMODEL          PACKAGE MUMODEL         CONNECTED TO MODEL MUMODEL          PACKAGE RCH-1            ON UNIT   1015 AT TIME STEP      6, STRESS PERIOD     15

 WEL PACKAGE (WEL-1) FLOW RATES   PERIOD     15   STEP        6
 -----------------------------------------------
   NUMBER   CELLID                    RATE      
 -----------------------------------------------
     1      (1,5,5)              -20000.000     
     2      (1,11,5)              0.0000000     
     3      (1,5,5)               0.0000000     
 -----------------------------------------------




 CHD PACKAGE (CHD-FROM-IBOUND) FLOW RATES   PERIOD     15   STEP        6
 -----------------------------------------------
   NUMBER   CELLID                    RATE      
 -----------------------------------------------
     1      (1,1,1)              -5088.1331     
     2      (1,1,2)              -5088.1317     
     3      (1,1,3)              -5088.1309     
     4      (1,1,4)              -5088.1258     
     5      (1,1,5)              -5088.0693     
     6      (1,1,6)              -5088.1279     
     7      (1,1,7)              -5088.1350     
     8      (1,1,8)              -5088.1370     
     9      (1,1,9)              -5088.1386     
     10     (1,21,1)             -5088.1367     
     11     (1,21,2)             -5088.1348     
     12     (1,21,3)             -5088.1329     
     13     (1,21,4)             -5088.1315     
     14     (1,21,5)             -5088.1304     
     15     (1,21,6)             -5088.1294     
     16     (1,21,7)             -5088.1295     
     17     (1,21,8)             -5088.1313     
     18     (1,21,9)             -5088.1341     
 -----------------------------------------------




 HEAD WILL BE SAVED ON UNIT 1016 AT END OF TIME STEP    6, STRESS PERIOD   15


  VOLUME BUDGET FOR ENTIRE MODEL AT END OF TIME STEP    6, STRESS PERIOD  15
  ---------------------------------------------------------------------------------------------------

     CUMULATIVE VOLUME      L**3       RATES FOR THIS TIME STEP      L**3/T          PACKAGE NAME    
     ------------------                 ------------------------                     ----------------

           IN:                                      IN:
           ---                                      ---
              STO-SS =    13427044.6836                STO-SS =       11279.2995     STORAGE                          
              STO-SY =      422323.4034                STO-SY =         355.9090     STORAGE                          
                 WEL =           0.0000                   WEL =           0.0000     WEL-1                            
                RCHA =    82115076.2252                  RCHA =      513000.0000     RCH-1                            
                 CHD =           0.0000                   CHD =           0.0000     CHD-FROM-IBOUND                  

            TOTAL IN =    95964444.3122              TOTAL IN =      524635.2085

          OUT:                                     OUT:
          ----                                     ----
              STO-SS =    55676603.9583                STO-SS =      400815.0419     STORAGE                          
              STO-SY =     1703861.7282                STO-SY =       12233.8574     STORAGE                          
                 WEL =      957034.1608                   WEL =       20000.0000     WEL-1                            
                RCHA =           0.0000                  RCHA =           0.0000     RCH-1                            
                 CHD =    37626945.7633                   CHD =       91586.3198     CHD-FROM-IBOUND                  

           TOTAL OUT =    95964445.6105             TOTAL OUT =      524635.2191

            IN - OUT =          -1.2983              IN - OUT =      -1.0661E-02

 PERCENT DISCREPANCY =          -0.00     PERCENT DISCREPANCY =          -0.00




         TIME SUMMARY AT END OF TIME STEP    6 IN STRESS PERIOD   15
                    SECONDS     MINUTES      HOURS       DAYS        YEARS
                    -----------------------------------------------------------
   TIME STEP LENGTH 3.64853E+05  6080.9      101.35      4.2228     1.15615E-02
 STRESS PERIOD TIME 1.45599E+06  24266.      404.44      16.852     4.61375E-02
         TOTAL TIME 3.57568E+07 5.95946E+05  9932.4      413.85      1.1331    


end timestep


start timestep kper="15" kstp="7" mode="normal"

 UBDSV1 SAVING     FLOW-JA-FACE ON UNIT   1015 AT TIME STEP      7, STRESS PERIOD     15
 UBDSV06 SAVING              WEL IN MODEL MUMODEL          PACKAGE MUMODEL         CONNECTED TO MODEL MUMODEL          PACKAGE WEL-1            ON UNIT   1015 AT TIME STEP      7, STRESS PERIOD     15
 UBDSV06 SAVING             RCHA IN MODEL MUMODEL          PACKAGE MUMODEL         CONNECTED TO MODEL MUMODEL          PACKAGE RCH-1            ON UNIT   1015 AT TIME STEP      7, STRESS PERIOD     15

 WEL PACKAGE (WEL-1) FLOW RATES   PERIOD     15   STEP        7
 -----------------------------------------------
   NUMBER   CELLID                    RATE      
 -----------------------------------------------
     1      (1,5,5)              -20000.000     
     2      (1,11,5)              0.0000000     
     3      (1,5,5)               0.0000000     
 -----------------------------------------------




 CHD PACKAGE (CHD-FROM-IBOUND) FLOW RATES   PERIOD     15   STEP        7
 -----------------------------------------------
   NUMBER   CELLID                    RATE      
 -----------------------------------------------
     1      (1,1,1)              -5109.6395     
     2      (1,1,2)              -5109.6382     
     3      (1,1,3)              -5109.6372     
     4      (1,1,4)              -5109.6291     
     5      (1,1,5)              -5109.5499     
     6      (1,1,6)              -5109.6311     
     7      (1,1,7)              -5109.6411     
     8      (1,1,8)              -5109.6434     
     9      (1,1,9)              -5109.6449     
     10     (1,21,1)             -5109.6430     
     11     (1,21,2)             -5109.6412     
     12     (1,21,3)             -5109.6393     
     13     (1,21,4)             -5109.6379     
     14     (1,21,5)             -5109.6368     
     15     (1,21,6)             -5109.6359     
     16     (1,21,7)             -5109.6359     
     17     (1,21,8)             -5109.6378     
     18     (1,21,9)             -5109.6405     
 -----------------------------------------------




 HEAD WILL BE SAVED ON UNIT 1016 AT END OF TIME STEP    7, STRESS PERIOD   15


  VOLUME BUDGET FOR ENTIRE MODEL AT END OF TIME STEP    7, STRESS PERIOD  15
  ---------------------------------------------------------------------------------------------------

     CUMULATIVE VOLUME      L**3       RATES FOR THIS TIME STEP      L**3/T          PACKAGE NAME    
     ------------------                 ------------------------                     ----------------

           IN:                                      IN:
           ---                                      ---
              STO-SS =    13481829.7186                STO-SS =       10811.2595     STORAGE                          
              STO-SY =      424055.6364                STO-SY =         341.8383     STORAGE                          
                 WEL =           0.0000                   WEL =           0.0000     WEL-1                            
                RCHA =    84714655.2138                  RCHA =      513000.0000     RCH-1                            
                 CHD =           0.0000                   CHD =           0.0000     CHD-FROM-IBOUND                  

            TOTAL IN =    98620540.5688              TOTAL IN =      524153.0977

          OUT:                                     OUT:
          ----                                     ----
              STO-SS =    57703466.5613                STO-SS =      399980.3506     STORAGE                          
              STO-SY =     1765680.7525                STO-SY =       12199.3444     STORAGE                          
                 WEL =     1058382.2695                   WEL =       20000.0000     WEL-1                            
                RCHA =           0.0000                  RCHA =           0.0000     RCH-1                            
                 CHD =    38093012.2840                   CHD =       91973.4027     CHD-FROM-IBOUND                  

           TOTAL OUT =    98620541.8674             TOTAL OUT =      524153.0978

            IN - OUT =          -1.2986              IN - OUT =      -4.5010E-05

 PERCENT DISCREPANCY =          -0.00     PERCENT DISCREPANCY =          -0.00




         TIME SUMMARY AT END OF TIME STEP    7 IN STRESS PERIOD   15
                    SECONDS     MINUTES      HOURS       DAYS        YEARS
                    -----------------------------------------------------------
   TIME STEP LENGTH 4.37824E+05  7297.1      121.62      5.0674     1.38738E-02
 STRESS PERIOD TIME 1.89381E+06  31564.      526.06      21.919     6.00113E-02
         TOTAL TIME 3.61946E+07 6.03244E+05  10054.      418.92      1.1469    


end timestep


start timestep kper="15" kstp="8" mode="normal"

 UBDSV1 SAVING     FLOW-JA-FACE ON UNIT   1015 AT TIME STEP      8, STRESS PERIOD     15
 UBDSV06 SAVING              WEL IN MODEL MUMODEL          PACKAGE MUMODEL         CONNECTED TO MODEL MUMODEL          PACKAGE WEL-1            ON UNIT   1015 AT TIME STEP      8, STRESS PERIOD     15
 UBDSV06 SAVING             RCHA IN MODEL MUMODEL          PACKAGE MUMODEL         CONNECTED TO MODEL MUMODEL          PACKAGE RCH-1            ON UNIT   1015 AT TIME STEP      8, STRESS PERIOD     15

 WEL PACKAGE (WEL-1) FLOW RATES   PERIOD     15   STEP        8
 -----------------------------------------------
   NUMBER   CELLID                    RATE      
 -----------------------------------------------
     1      (1,5,5)              -20000.000     
     2      (1,11,5)              0.0000000     
     3      (1,5,5)               0.0000000     
 -----------------------------------------------




 CHD PACKAGE (CHD-FROM-IBOUND) FLOW RATES   PERIOD     15   STEP        8
 -----------------------------------------------
   NUMBER   CELLID                    RATE      
 -----------------------------------------------
     1      (1,1,1)              -5135.1756     
     2      (1,1,2)              -5135.1743     
     3      (1,1,3)              -5135.1730     
     4      (1,1,4)              -5135.1599     
     5      (1,1,5)              -5135.0457     
     6      (1,1,6)              -5135.1619     
     7      (1,1,7)              -5135.1769     
     8      (1,1,8)              -5135.1795     
     9      (1,1,9)              -5135.1810     
     10     (1,21,1)             -5135.1791     
     11     (1,21,2)             -5135.1773     
     12     (1,21,3)             -5135.1754     
     13     (1,21,4)             -5135.1741     
     14     (1,21,5)             -5135.1729     
     15     (1,21,6)             -5135.1721     
     16     (1,21,7)             -5135.1721     
     17     (1,21,8)             -5135.1740     
     18     (1,21,9)             -5135.1767     
 -----------------------------------------------




 HEAD WILL BE SAVED ON UNIT 1016 AT END OF TIME STEP    8, STRESS PERIOD   15


  VOLUME BUDGET FOR ENTIRE MODEL AT END OF TIME STEP    8, STRESS PERIOD  15
  ---------------------------------------------------------------------------------------------------

     CUMULATIVE VOLUME      L**3       RATES FOR THIS TIME STEP      L**3/T          PACKAGE NAME    
     ------------------                 ------------------------                     ----------------

           IN:                                      IN:
           ---                                      ---
              STO-SS =    13544335.1728                STO-SS =       10279.0036     STORAGE                          
              STO-SY =      426036.6310                STO-SY =         325.7740     STORAGE                          
                 WEL =           0.0000                   WEL =           0.0000     WEL-1                            
                RCHA =    87834150.0000                  RCHA =      513000.0000     RCH-1                            
                 CHD =           0.0000                   CHD =           0.0000     CHD-FROM-IBOUND                  

            TOTAL IN =   101804521.8038              TOTAL IN =      523604.7775

          OUT:                                     OUT:
          ----                                     ----
              STO-SS =    60129817.3501                STO-SS =      399012.6735     STORAGE                          
              STO-SY =     1839618.8750                STO-SY =       12159.1025     STORAGE                          
                 WEL =     1180000.0000                   WEL =       20000.0000     WEL-1                            
                RCHA =           0.0000                  RCHA =           0.0000     RCH-1                            
                 CHD =    38655086.8777                   CHD =       92433.0016     CHD-FROM-IBOUND                  

           TOTAL OUT =   101804523.1028             TOTAL OUT =      523604.7776

            IN - OUT =          -1.2990              IN - OUT =      -7.3085E-05

 PERCENT DISCREPANCY =          -0.00     PERCENT DISCREPANCY =          -0.00




         TIME SUMMARY AT END OF TIME STEP    8 IN STRESS PERIOD   15
                    SECONDS     MINUTES      HOURS       DAYS        YEARS
                    -----------------------------------------------------------
   TIME STEP LENGTH 5.25389E+05  8756.5      145.94      6.0809     1.66486E-02
 STRESS PERIOD TIME 2.41920E+06  40320.      672.00      28.000     7.66598E-02
         TOTAL TIME 3.67200E+07 6.12000E+05  10200.      425.00      1.1636    


end timestep


start timestep kper="16" kstp="1" mode="normal"


 OUTPUT CONTROL FOR STRESS PERIOD 16 IS REPEATED USING SETTINGS FROM A PREVIOUS STRESS PERIOD.


 STRESS PERIOD 16 IS TRANSIENT


 REUSING WELS FROM LAST STRESS PERIOD

 REUSING CHDS FROM LAST STRESS PERIOD
 UBDSV1 SAVING     FLOW-JA-FACE ON UNIT   1015 AT TIME STEP      1, STRESS PERIOD     16
 UBDSV06 SAVING              WEL IN MODEL MUMODEL          PACKAGE MUMODEL         CONNECTED TO MODEL MUMODEL          PACKAGE WEL-1            ON UNIT   1015 AT TIME STEP      1, STRESS PERIOD     16
 UBDSV06 SAVING             RCHA IN MODEL MUMODEL          PACKAGE MUMODEL         CONNECTED TO MODEL MUMODEL          PACKAGE RCH-1            ON UNIT   1015 AT TIME STEP      1, STRESS PERIOD     16

 WEL PACKAGE (WEL-1) FLOW RATES   PERIOD     16   STEP        1
 -----------------------------------------------
   NUMBER   CELLID                    RATE      
 -----------------------------------------------
     1      (1,5,5)              -20000.000     
     2      (1,11,5)              0.0000000     
     3      (1,5,5)               0.0000000     
 -----------------------------------------------




 CHD PACKAGE (CHD-FROM-IBOUND) FLOW RATES   PERIOD     16   STEP        1
 -----------------------------------------------
   NUMBER   CELLID                    RATE      
 -----------------------------------------------
     1      (1,1,1)              -5146.5362     
     2      (1,1,2)              -5146.5349     
     3      (1,1,3)              -5146.5334     
     4      (1,1,4)              -5146.5186     
     5      (1,1,5)              -5146.3929     
     6      (1,1,6)              -5146.5207     
     7      (1,1,7)              -5146.5374     
     8      (1,1,8)              -5146.5401     
     9      (1,1,9)              -5146.5416     
     10     (1,21,1)             -5146.5397     
     11     (1,21,2)             -5146.5379     
     12     (1,21,3)             -5146.5360     
     13     (1,21,4)             -5146.5347     
     14     (1,21,5)             -5146.5335     
     15     (1,21,6)             -5146.5327     
     16     (1,21,7)             -5146.5327     
     17     (1,21,8)             -5146.5346     
     18     (1,21,9)             -5146.5373     
 -----------------------------------------------




 HEAD WILL BE SAVED ON UNIT 1016 AT END OF TIME STEP    1, STRESS PERIOD   16


  VOLUME BUDGET FOR ENTIRE MODEL AT END OF TIME STEP    1, STRESS PERIOD  16
  ---------------------------------------------------------------------------------------------------

     CUMULATIVE VOLUME      L**3       RATES FOR THIS TIME STEP      L**3/T          PACKAGE NAME    
     ------------------                 ------------------------                     ----------------

           IN:                                      IN:
           ---                                      ---
              STO-SS =    13561522.9136                STO-SS =        9147.8062     STORAGE                          
              STO-SY =      426582.2384                STO-SY =         290.3878     STORAGE                          
                 WEL =           0.0000                   WEL =           0.0000     WEL-1                            
                RCHA =    89119312.1928                  RCHA =      684000.0000     RCH-1                            
                 CHD =           0.0000                   CHD =           0.0000     CHD-FROM-IBOUND                  

            TOTAL IN =   103107417.3447              TOTAL IN =      693438.1940

          OUT:                                     OUT:
          ----                                     ----
              STO-SS =    61188783.8231                STO-SS =      563612.1819     STORAGE                          
              STO-SY =     1871914.2833                STO-SY =       17188.5381     STORAGE                          
                 WEL =     1217577.8419                   WEL =       20000.0000     WEL-1                            
                RCHA =           0.0000                  RCHA =           0.0000     RCH-1                            
                 CHD =    38829142.6972                   CHD =       92637.4750     CHD-FROM-IBOUND                  

           TOTAL OUT =   103107418.6455             TOTAL OUT =      693438.1950

            IN - OUT =          -1.3008              IN - OUT =      -9.5919E-04

 PERCENT DISCREPANCY =          -0.00     PERCENT DISCREPANCY =          -0.00




         TIME SUMMARY AT END OF TIME STEP    1 IN STRESS PERIOD   16
                    SECONDS     MINUTES      HOURS       DAYS        YEARS
                    -----------------------------------------------------------
   TIME STEP LENGTH 1.62336E+05  2705.6      45.093      1.8789     5.14413E-03
 STRESS PERIOD TIME 1.62336E+05  2705.6      45.093      1.8789     5.14413E-03
         TOTAL TIME 3.68823E+07 6.14706E+05  10245.      426.88      1.1687    


end timestep


start timestep kper="16" kstp="2" mode="normal"

 UBDSV1 SAVING     FLOW-JA-FACE ON UNIT   1015 AT TIME STEP      2, STRESS PERIOD     16
 UBDSV06 SAVING              WEL IN MODEL MUMODEL          PACKAGE MUMODEL         CONNECTED TO MODEL MUMODEL          PACKAGE WEL-1            ON UNIT   1015 AT TIME STEP      2, STRESS PERIOD     16
 UBDSV06 SAVING             RCHA IN MODEL MUMODEL          PACKAGE MUMODEL         CONNECTED TO MODEL MUMODEL          PACKAGE RCH-1            ON UNIT   1015 AT TIME STEP      2, STRESS PERIOD     16

 WEL PACKAGE (WEL-1) FLOW RATES   PERIOD     16   STEP        2
 -----------------------------------------------
   NUMBER   CELLID                    RATE      
 -----------------------------------------------
     1      (1,5,5)              -20000.000     
     2      (1,11,5)              0.0000000     
     3      (1,5,5)               0.0000000     
 -----------------------------------------------




 CHD PACKAGE (CHD-FROM-IBOUND) FLOW RATES   PERIOD     16   STEP        2
 -----------------------------------------------
   NUMBER   CELLID                    RATE      
 -----------------------------------------------
     1      (1,1,1)              -5160.1137     
     2      (1,1,2)              -5160.1124     
     3      (1,1,3)              -5160.1107     
     4      (1,1,4)              -5160.0936     
     5      (1,1,5)              -5159.9528     
     6      (1,1,6)              -5160.0956     
     7      (1,1,7)              -5160.1146     
     8      (1,1,8)              -5160.1175     
     9      (1,1,9)              -5160.1190     
     10     (1,21,1)             -5160.1171     
     11     (1,21,2)             -5160.1153     
     12     (1,21,3)             -5160.1134     
     13     (1,21,4)             -5160.1121     
     14     (1,21,5)             -5160.1110     
     15     (1,21,6)             -5160.1101     
     16     (1,21,7)             -5160.1102     
     17     (1,21,8)             -5160.1120     
     18     (1,21,9)             -5160.1147     
 -----------------------------------------------




 HEAD WILL BE SAVED ON UNIT 1016 AT END OF TIME STEP    2, STRESS PERIOD   16


  VOLUME BUDGET FOR ENTIRE MODEL AT END OF TIME STEP    2, STRESS PERIOD  16
  ---------------------------------------------------------------------------------------------------

     CUMULATIVE VOLUME      L**3       RATES FOR THIS TIME STEP      L**3/T          PACKAGE NAME    
     ------------------                 ------------------------                     ----------------

           IN:                                      IN:
           ---                                      ---
              STO-SS =    13581719.5604                STO-SS =        8957.6932     STORAGE                          
              STO-SY =      427223.8441                STO-SY =         284.5674     STORAGE                          
                 WEL =           0.0000                   WEL =           0.0000     WEL-1                            
                RCHA =    90661506.8241                  RCHA =      684000.0000     RCH-1                            
                 CHD =           0.0000                   CHD =           0.0000     CHD-FROM-IBOUND                  

            TOTAL IN =   104670450.2285              TOTAL IN =      693242.2606

          OUT:                                     OUT:
          ----                                     ----
              STO-SS =    62458595.4694                STO-SS =      563191.6675     STORAGE                          
              STO-SY =     1910624.1555                STO-SY =       17168.7491     STORAGE                          
                 WEL =     1262671.2522                   WEL =       20000.0000     WEL-1                            
                RCHA =           0.0000                  RCHA =           0.0000     RCH-1                            
                 CHD =    39038560.6559                   CHD =       92881.8457     CHD-FROM-IBOUND                  

           TOTAL OUT =   104670451.5330             TOTAL OUT =      693242.2623

            IN - OUT =          -1.3045              IN - OUT =      -1.6274E-03

 PERCENT DISCREPANCY =          -0.00     PERCENT DISCREPANCY =          -0.00




         TIME SUMMARY AT END OF TIME STEP    2 IN STRESS PERIOD   16
                    SECONDS     MINUTES      HOURS       DAYS        YEARS
                    -----------------------------------------------------------
   TIME STEP LENGTH 1.94804E+05  3246.7      54.112      2.2547     6.17295E-03
 STRESS PERIOD TIME 3.57140E+05  5952.3      99.206      4.1336     1.13171E-02
         TOTAL TIME 3.70771E+07 6.17952E+05  10299.      429.13      1.1749    


end timestep


start timestep kper="16" kstp="3" mode="normal"

 UBDSV1 SAVING     FLOW-JA-FACE ON UNIT   1015 AT TIME STEP      3, STRESS PERIOD     16
 UBDSV06 SAVING              WEL IN MODEL MUMODEL          PACKAGE MUMODEL         CONNECTED TO MODEL MUMODEL          PACKAGE WEL-1            ON UNIT   1015 AT TIME STEP      3, STRESS PERIOD     16
 UBDSV06 SAVING             RCHA IN MODEL MUMODEL          PACKAGE MUMODEL         CONNECTED TO MODEL MUMODEL          PACKAGE RCH-1            ON UNIT   1015 AT TIME STEP      3, STRESS PERIOD     16

 WEL PACKAGE (WEL-1) FLOW RATES   PERIOD     16   STEP        3
 -----------------------------------------------
   NUMBER   CELLID                    RATE      
 -----------------------------------------------
     1      (1,5,5)              -20000.000     
     2      (1,11,5)              0.0000000     
     3      (1,5,5)               0.0000000     
 -----------------------------------------------




 CHD PACKAGE (CHD-FROM-IBOUND) FLOW RATES   PERIOD     16   STEP        3
 -----------------------------------------------
   NUMBER   CELLID                    RATE      
 -----------------------------------------------
     1      (1,1,1)              -5176.3285     
     2      (1,1,2)              -5176.3272     
     3      (1,1,3)              -5176.3253     
     4      (1,1,4)              -5176.3051     
     5      (1,1,5)              -5176.1444     
     6      (1,1,6)              -5176.3071     
     7      (1,1,7)              -5176.3292     
     8      (1,1,8)              -5176.3323     
     9      (1,1,9)              -5176.3339     
     10     (1,21,1)             -5176.3319     
     11     (1,21,2)             -5176.3302     
     12     (1,21,3)             -5176.3283     
     13     (1,21,4)             -5176.3269     
     14     (1,21,5)             -5176.3258     
     15     (1,21,6)             -5176.3250     
     16     (1,21,7)             -5176.3251     
     17     (1,21,8)             -5176.3269     
     18     (1,21,9)             -5176.3296     
 -----------------------------------------------




 HEAD WILL BE SAVED ON UNIT 1016 AT END OF TIME STEP    3, STRESS PERIOD   16


  VOLUME BUDGET FOR ENTIRE MODEL AT END OF TIME STEP    3, STRESS PERIOD  16
  ---------------------------------------------------------------------------------------------------

     CUMULATIVE VOLUME      L**3       RATES FOR THIS TIME STEP      L**3/T          PACKAGE NAME    
     ------------------                 ------------------------                     ----------------

           IN:                                      IN:
           ---                                      ---
              STO-SS =    13605352.9601                STO-SS =        8734.9791     STORAGE                          
              STO-SY =      427975.2934                STO-SY =         277.7380     STORAGE                          
                 WEL =           0.0000                   WEL =           0.0000     WEL-1                            
                RCHA =    92512140.3816                  RCHA =      684000.0000     RCH-1                            
                 CHD =           0.0000                   CHD =           0.0000     CHD-FROM-IBOUND                  

            TOTAL IN =   106545468.6351              TOTAL IN =      693012.7171

          OUT:                                     OUT:
          ----                                     ----
              STO-SS =    63981022.3683                STO-SS =      562693.7838     STORAGE                          
              STO-SY =     1957012.4323                STO-SY =       17145.2534     STORAGE                          
                 WEL =     1316783.3445                   WEL =       20000.0000     WEL-1                            
                RCHA =           0.0000                  RCHA =           0.0000     RCH-1                            
                 CHD =    39290651.8018                   CHD =       93173.6826     CHD-FROM-IBOUND                  

           TOTAL OUT =   106545469.9470             TOTAL OUT =      693012.7198

            IN - OUT =          -1.3119              IN - OUT =      -2.7302E-03

 PERCENT DISCREPANCY =          -0.00     PERCENT DISCREPANCY =          -0.00




         TIME SUMMARY AT END OF TIME STEP    3 IN STRESS PERIOD   16
                    SECONDS     MINUTES      HOURS       DAYS        YEARS
                    -----------------------------------------------------------
   TIME STEP LENGTH 2.33764E+05  3896.1      64.935      2.7056     7.40754E-03
 STRESS PERIOD TIME 5.90904E+05  9848.4      164.14      6.8392     1.87246E-02
         TOTAL TIME 3.73109E+07 6.21848E+05  10364.      431.84      1.1823    


end timestep


start timestep kper="16" kstp="4" mode="normal"

 UBDSV1 SAVING     FLOW-JA-FACE ON UNIT   1015 AT TIME STEP      4, STRESS PERIOD     16
 UBDSV06 SAVING              WEL IN MODEL MUMODEL          PACKAGE MUMODEL         CONNECTED TO MODEL MUMODEL          PACKAGE WEL-1            ON UNIT   1015 AT TIME STEP      4, STRESS PERIOD     16
 UBDSV06 SAVING             RCHA IN MODEL MUMODEL          PACKAGE MUMODEL         CONNECTED TO MODEL MUMODEL          PACKAGE RCH-1            ON UNIT   1015 AT TIME STEP      4, STRESS PERIOD     16

 WEL PACKAGE (WEL-1) FLOW RATES   PERIOD     16   STEP        4
 -----------------------------------------------
   NUMBER   CELLID                    RATE      
 -----------------------------------------------
     1      (1,5,5)              -20000.000     
     2      (1,11,5)              0.0000000     
     3      (1,5,5)               0.0000000     
 -----------------------------------------------




 CHD PACKAGE (CHD-FROM-IBOUND) FLOW RATES   PERIOD     16   STEP        4
 -----------------------------------------------
   NUMBER   CELLID                    RATE      
 -----------------------------------------------
     1      (1,1,1)              -5195.6753     
     2      (1,1,2)              -5195.6740     
     3      (1,1,3)              -5195.6717     
     4      (1,1,4)              -5195.6472     
     5      (1,1,5)              -5195.4600     
     6      (1,1,6)              -5195.6492     
     7      (1,1,7)              -5195.6756     
     8      (1,1,8)              -5195.6791     
     9      (1,1,9)              -5195.6806     
     10     (1,21,1)             -5195.6787     
     11     (1,21,2)             -5195.6769     
     12     (1,21,3)             -5195.6751     
     13     (1,21,4)             -5195.6737     
     14     (1,21,5)             -5195.6726     
     15     (1,21,6)             -5195.6718     
     16     (1,21,7)             -5195.6719     
     17     (1,21,8)             -5195.6737     
     18     (1,21,9)             -5195.6763     
 -----------------------------------------------




 HEAD WILL BE SAVED ON UNIT 1016 AT END OF TIME STEP    4, STRESS PERIOD   16


  VOLUME BUDGET FOR ENTIRE MODEL AT END OF TIME STEP    4, STRESS PERIOD  16
  ---------------------------------------------------------------------------------------------------

     CUMULATIVE VOLUME      L**3       RATES FOR THIS TIME STEP      L**3/T          PACKAGE NAME    
     ------------------                 ------------------------                     ----------------

           IN:                                      IN:
           ---                                      ---
              STO-SS =    13632869.8572                STO-SS =        8475.2766     STORAGE                          
              STO-SY =      428851.1290                STO-SY =         269.7597     STORAGE                          
                 WEL =           0.0000                   WEL =           0.0000     WEL-1                            
                RCHA =    94732900.6507                  RCHA =      684000.0000     RCH-1                            
                 CHD =           0.0000                   CHD =           0.0000     CHD-FROM-IBOUND                  

            TOTAL IN =   108794621.6369              TOTAL IN =      692745.0363

          OUT:                                     OUT:
          ----                                     ----
              STO-SS =    65806025.4514                STO-SS =      562105.7465     STORAGE                          
              STO-SY =     2012587.9678                STO-SY =       17117.4110     STORAGE                          
                 WEL =     1381717.8553                   WEL =       20000.0000     WEL-1                            
                RCHA =           0.0000                  RCHA =           0.0000     RCH-1                            
                 CHD =    39594291.6891                   CHD =       93521.8834     CHD-FROM-IBOUND                  

           TOTAL OUT =   108794622.9636             TOTAL OUT =      692745.0409

            IN - OUT =          -1.3267              IN - OUT =      -4.5562E-03

 PERCENT DISCREPANCY =          -0.00     PERCENT DISCREPANCY =          -0.00




         TIME SUMMARY AT END OF TIME STEP    4 IN STRESS PERIOD   16
                    SECONDS     MINUTES      HOURS       DAYS        YEARS
                    -----------------------------------------------------------
   TIME STEP LENGTH 2.80517E+05  4675.3      77.921      3.2467     8.88905E-03
 STRESS PERIOD TIME 8.71421E+05  14524.      242.06      10.086     2.76137E-02
         TOTAL TIME 3.75914E+07 6.26524E+05  10442.      435.09      1.1912    


end timestep


start timestep kper="16" kstp="5" mode="normal"

 UBDSV1 SAVING     FLOW-JA-FACE ON UNIT   1015 AT TIME STEP      5, STRESS PERIOD     16
 UBDSV06 SAVING              WEL IN MODEL MUMODEL          PACKAGE MUMODEL         CONNECTED TO MODEL MUMODEL          PACKAGE WEL-1            ON UNIT   1015 AT TIME STEP      5, STRESS PERIOD     16
 UBDSV06 SAVING             RCHA IN MODEL MUMODEL          PACKAGE MUMODEL         CONNECTED TO MODEL MUMODEL          PACKAGE RCH-1            ON UNIT   1015 AT TIME STEP      5, STRESS PERIOD     16

 WEL PACKAGE (WEL-1) FLOW RATES   PERIOD     16   STEP        5
 -----------------------------------------------
   NUMBER   CELLID                    RATE      
 -----------------------------------------------
     1      (1,5,5)              -20000.000     
     2      (1,11,5)              0.0000000     
     3      (1,5,5)               0.0000000     
 -----------------------------------------------




 CHD PACKAGE (CHD-FROM-IBOUND) FLOW RATES   PERIOD     16   STEP        5
 -----------------------------------------------
   NUMBER   CELLID                    RATE      
 -----------------------------------------------
     1      (1,1,1)              -5218.7338     
     2      (1,1,2)              -5218.7325     
     3      (1,1,3)              -5218.7297     
     4      (1,1,4)              -5218.6990     
     5      (1,1,5)              -5218.4760     
     6      (1,1,6)              -5218.7010     
     7      (1,1,7)              -5218.7335     
     8      (1,1,8)              -5218.7375     
     9      (1,1,9)              -5218.7391     
     10     (1,21,1)             -5218.7371     
     11     (1,21,2)             -5218.7354     
     12     (1,21,3)             -5218.7336     
     13     (1,21,4)             -5218.7322     
     14     (1,21,5)             -5218.7311     
     15     (1,21,6)             -5218.7303     
     16     (1,21,7)             -5218.7304     
     17     (1,21,8)             -5218.7323     
     18     (1,21,9)             -5218.7349     
 -----------------------------------------------




 HEAD WILL BE SAVED ON UNIT 1016 AT END OF TIME STEP    5, STRESS PERIOD   16


  VOLUME BUDGET FOR ENTIRE MODEL AT END OF TIME STEP    5, STRESS PERIOD  16
  ---------------------------------------------------------------------------------------------------

     CUMULATIVE VOLUME      L**3       RATES FOR THIS TIME STEP      L**3/T          PACKAGE NAME    
     ------------------                 ------------------------                     ----------------

           IN:                                      IN:
           ---                                      ---
              STO-SS =    13664716.7081                STO-SS =        8174.0948     STORAGE                          
              STO-SY =      429866.0042                STO-SY =         260.4869     STORAGE                          
                 WEL =           0.0000                   WEL =           0.0000     WEL-1                            
                RCHA =    97397812.9736                  RCHA =      684000.0000     RCH-1                            
                 CHD =           0.0000                   CHD =           0.0000     CHD-FROM-IBOUND                  

            TOTAL IN =   111492395.6859              TOTAL IN =      692434.5817

          OUT:                                     OUT:
          ----                                     ----
              STO-SS =    67993331.0103                STO-SS =      561413.2178     STORAGE                          
              STO-SY =     2079150.3557                STO-SY =       17084.4920     STORAGE                          
                 WEL =     1459639.2682                   WEL =       20000.0000     WEL-1                            
                RCHA =           0.0000                  RCHA =           0.0000     RCH-1                            
                 CHD =    39960276.4078                   CHD =       93936.8794     CHD-FROM-IBOUND                  

           TOTAL OUT =   111492397.0420             TOTAL OUT =      692434.5892

            IN - OUT =          -1.3561              IN - OUT =      -7.5647E-03

 PERCENT DISCREPANCY =          -0.00     PERCENT DISCREPANCY =          -0.00




         TIME SUMMARY AT END OF TIME STEP    5 IN STRESS PERIOD   16
                    SECONDS     MINUTES      HOURS       DAYS        YEARS
                    -----------------------------------------------------------
   TIME STEP LENGTH 3.36621E+05  5610.3      93.506      3.8961     1.06669E-02
 STRESS PERIOD TIME 1.20804E+06  20134.      335.57      13.982     3.82805E-02
         TOTAL TIME 3.79280E+07 6.32134E+05  10536.      438.98      1.2019    


end timestep


start timestep kper="16" kstp="6" mode="normal"

 UBDSV1 SAVING     FLOW-JA-FACE ON UNIT   1015 AT TIME STEP      6, STRESS PERIOD     16
 UBDSV06 SAVING              WEL IN MODEL MUMODEL          PACKAGE MUMODEL         CONNECTED TO MODEL MUMODEL          PACKAGE WEL-1            ON UNIT   1015 AT TIME STEP      6, STRESS PERIOD     16
 UBDSV06 SAVING             RCHA IN MODEL MUMODEL          PACKAGE MUMODEL         CONNECTED TO MODEL MUMODEL          PACKAGE RCH-1            ON UNIT   1015 AT TIME STEP      6, STRESS PERIOD     16

 WEL PACKAGE (WEL-1) FLOW RATES   PERIOD     16   STEP        6
 -----------------------------------------------
   NUMBER   CELLID                    RATE      
 -----------------------------------------------
     1      (1,5,5)              -20000.000     
     2      (1,11,5)              0.0000000     
     3      (1,5,5)               0.0000000     
 -----------------------------------------------




 CHD PACKAGE (CHD-FROM-IBOUND) FLOW RATES   PERIOD     16   STEP        6
 -----------------------------------------------
   NUMBER   CELLID                    RATE      
 -----------------------------------------------
     1      (1,1,1)              -5246.1809     
     2      (1,1,2)              -5246.1795     
     3      (1,1,3)              -5246.1759     
     4      (1,1,4)              -5246.1362     
     5      (1,1,5)              -5245.8640     
     6      (1,1,6)              -5246.1382     
     7      (1,1,7)              -5246.1797     
     8      (1,1,8)              -5246.1845     
     9      (1,1,9)              -5246.1861     
     10     (1,21,1)             -5246.1842     
     11     (1,21,2)             -5246.1825     
     12     (1,21,3)             -5246.1806     
     13     (1,21,4)             -5246.1793     
     14     (1,21,5)             -5246.1782     
     15     (1,21,6)             -5246.1774     
     16     (1,21,7)             -5246.1775     
     17     (1,21,8)             -5246.1794     
     18     (1,21,9)             -5246.1819     
 -----------------------------------------------




 HEAD WILL BE SAVED ON UNIT 1016 AT END OF TIME STEP    6, STRESS PERIOD   16


  VOLUME BUDGET FOR ENTIRE MODEL AT END OF TIME STEP    6, STRESS PERIOD  16
  ---------------------------------------------------------------------------------------------------

     CUMULATIVE VOLUME      L**3       RATES FOR THIS TIME STEP      L**3/T          PACKAGE NAME    
     ------------------                 ------------------------                     ----------------

           IN:                                      IN:
           ---                                      ---
              STO-SS =    13701310.4182                STO-SS =        7827.0548     STORAGE                          
              STO-SY =      431033.7738                STO-SY =         249.7751     STORAGE                          
                 WEL =           0.0000                   WEL =           0.0000     WEL-1                            
                RCHA =   100595707.7611                  RCHA =      684000.0000     RCH-1                            
                 CHD =           0.0000                   CHD =           0.0000     CHD-FROM-IBOUND                  

            TOTAL IN =   114728051.9531              TOTAL IN =      692076.8299

          OUT:                                     OUT:
          ----                                     ----
              STO-SS =    70614297.1721                STO-SS =      560600.3242     STORAGE                          
              STO-SY =     2158843.7265                STO-SY =       17045.6720     STORAGE                          
                 WEL =     1553144.9638                   WEL =       20000.0000     WEL-1                            
                RCHA =           0.0000                  RCHA =           0.0000     RCH-1                            
                 CHD =    40401767.5052                   CHD =       94430.8461     CHD-FROM-IBOUND                  

           TOTAL OUT =   114728053.3676             TOTAL OUT =      692076.8424

            IN - OUT =          -1.4144              IN - OUT =      -1.2464E-02

 PERCENT DISCREPANCY =          -0.00     PERCENT DISCREPANCY =          -0.00




         TIME SUMMARY AT END OF TIME STEP    6 IN STRESS PERIOD   16
                    SECONDS     MINUTES      HOURS       DAYS        YEARS
                    -----------------------------------------------------------
   TIME STEP LENGTH 4.03945E+05  6732.4      112.21      4.6753     1.28002E-02
 STRESS PERIOD TIME 1.61199E+06  26866.      447.77      18.657     5.10808E-02
         TOTAL TIME 3.83320E+07 6.38866E+05  10648.      443.66      1.2147    


end timestep


start timestep kper="16" kstp="7" mode="normal"

 UBDSV1 SAVING     FLOW-JA-FACE ON UNIT   1015 AT TIME STEP      7, STRESS PERIOD     16
 UBDSV06 SAVING              WEL IN MODEL MUMODEL          PACKAGE MUMODEL         CONNECTED TO MODEL MUMODEL          PACKAGE WEL-1            ON UNIT   1015 AT TIME STEP      7, STRESS PERIOD     16
 UBDSV06 SAVING             RCHA IN MODEL MUMODEL          PACKAGE MUMODEL         CONNECTED TO MODEL MUMODEL          PACKAGE RCH-1            ON UNIT   1015 AT TIME STEP      7, STRESS PERIOD     16

 WEL PACKAGE (WEL-1) FLOW RATES   PERIOD     16   STEP        7
 -----------------------------------------------
   NUMBER   CELLID                    RATE      
 -----------------------------------------------
     1      (1,5,5)              -20000.000     
     2      (1,11,5)              0.0000000     
     3      (1,5,5)               0.0000000     
 -----------------------------------------------




 CHD PACKAGE (CHD-FROM-IBOUND) FLOW RATES   PERIOD     16   STEP        7
 -----------------------------------------------
   NUMBER   CELLID                    RATE      
 -----------------------------------------------
     1      (1,1,1)              -5278.8025     
     2      (1,1,2)              -5278.8011     
     3      (1,1,3)              -5278.7962     
     4      (1,1,4)              -5278.7431     
     5      (1,1,5)              -5278.4022     
     6      (1,1,6)              -5278.7451     
     7      (1,1,7)              -5278.8000     
     8      (1,1,8)              -5278.8060     
     9      (1,1,9)              -5278.8077     
     10     (1,21,1)             -5278.8057     
     11     (1,21,2)             -5278.8041     
     12     (1,21,3)             -5278.8023     
     13     (1,21,4)             -5278.8009     
     14     (1,21,5)             -5278.7999     
     15     (1,21,6)             -5278.7991     
     16     (1,21,7)             -5278.7992     
     17     (1,21,8)             -5278.8010     
     18     (1,21,9)             -5278.8035     
 -----------------------------------------------




 HEAD WILL BE SAVED ON UNIT 1016 AT END OF TIME STEP    7, STRESS PERIOD   16


  VOLUME BUDGET FOR ENTIRE MODEL AT END OF TIME STEP    7, STRESS PERIOD  16
  ---------------------------------------------------------------------------------------------------

     CUMULATIVE VOLUME      L**3       RATES FOR THIS TIME STEP      L**3/T          PACKAGE NAME    
     ------------------                 ------------------------                     ----------------

           IN:                                      IN:
           ---                                      ---
              STO-SS =    13742996.3577                STO-SS =        7430.1961     STORAGE                          
              STO-SY =      432366.1715                STO-SY =         237.4896     STORAGE                          
                 WEL =           0.0000                   WEL =           0.0000     WEL-1                            
                RCHA =   104433181.5060                  RCHA =      684000.0000     RCH-1                            
                 CHD =           0.0000                   CHD =           0.0000     CHD-FROM-IBOUND                  

            TOTAL IN =   118608544.0353              TOTAL IN =      691667.6857

          OUT:                                     OUT:
          ----                                     ----
              STO-SS =    73754123.5591                STO-SS =      559649.7570     STORAGE                          
              STO-SY =     2254219.7017                STO-SY =       17000.0295     STORAGE                          
                 WEL =     1665351.7984                   WEL =       20000.0000     WEL-1                            
                RCHA =           0.0000                  RCHA =           0.0000     RCH-1                            
                 CHD =    40934850.5047                   CHD =       95017.9196     CHD-FROM-IBOUND                  

           TOTAL OUT =   118608545.5639             TOTAL OUT =      691667.7061

            IN - OUT =          -1.5286              IN - OUT =      -2.0353E-02

 PERCENT DISCREPANCY =          -0.00     PERCENT DISCREPANCY =          -0.00




         TIME SUMMARY AT END OF TIME STEP    7 IN STRESS PERIOD   16
                    SECONDS     MINUTES      HOURS       DAYS        YEARS
                    -----------------------------------------------------------
   TIME STEP LENGTH 4.84734E+05  8078.9      134.65      5.6103     1.53603E-02
 STRESS PERIOD TIME 2.09672E+06  34945.      582.42      24.268     6.64410E-02
         TOTAL TIME 3.88167E+07 6.46945E+05  10782.      449.27      1.2300    


end timestep


start timestep kper="16" kstp="8" mode="normal"

 UBDSV1 SAVING     FLOW-JA-FACE ON UNIT   1015 AT TIME STEP      8, STRESS PERIOD     16
 UBDSV06 SAVING              WEL IN MODEL MUMODEL          PACKAGE MUMODEL         CONNECTED TO MODEL MUMODEL          PACKAGE WEL-1            ON UNIT   1015 AT TIME STEP      8, STRESS PERIOD     16
 UBDSV06 SAVING             RCHA IN MODEL MUMODEL          PACKAGE MUMODEL         CONNECTED TO MODEL MUMODEL          PACKAGE RCH-1            ON UNIT   1015 AT TIME STEP      8, STRESS PERIOD     16

 WEL PACKAGE (WEL-1) FLOW RATES   PERIOD     16   STEP        8
 -----------------------------------------------
   NUMBER   CELLID                    RATE      
 -----------------------------------------------
     1      (1,5,5)              -20000.000     
     2      (1,11,5)              0.0000000     
     3      (1,5,5)               0.0000000     
 -----------------------------------------------




 CHD PACKAGE (CHD-FROM-IBOUND) FLOW RATES   PERIOD     16   STEP        8
 -----------------------------------------------
   NUMBER   CELLID                    RATE      
 -----------------------------------------------
     1      (1,1,1)              -5317.5059     
     2      (1,1,2)              -5317.5044     
     3      (1,1,3)              -5317.4974     
     4      (1,1,4)              -5317.4238     
     5      (1,1,5)              -5316.9858     
     6      (1,1,6)              -5317.4257     
     7      (1,1,7)              -5317.5011     
     8      (1,1,8)              -5317.5092     
     9      (1,1,9)              -5317.5110     
     10     (1,21,1)             -5317.5091     
     11     (1,21,2)             -5317.5074     
     12     (1,21,3)             -5317.5056     
     13     (1,21,4)             -5317.5043     
     14     (1,21,5)             -5317.5033     
     15     (1,21,6)             -5317.5025     
     16     (1,21,7)             -5317.5026     
     17     (1,21,8)             -5317.5045     
     18     (1,21,9)             -5317.5069     
 -----------------------------------------------




 HEAD WILL BE SAVED ON UNIT 1016 AT END OF TIME STEP    8, STRESS PERIOD   16


  VOLUME BUDGET FOR ENTIRE MODEL AT END OF TIME STEP    8, STRESS PERIOD  16
  ---------------------------------------------------------------------------------------------------

     CUMULATIVE VOLUME      L**3       RATES FOR THIS TIME STEP      L**3/T          PACKAGE NAME    
     ------------------                 ------------------------                     ----------------

           IN:                                      IN:
           ---                                      ---
              STO-SS =    13789991.1308                STO-SS =        6980.3789     STORAGE                          
              STO-SY =      433870.9835                STO-SY =         223.5176     STORAGE                          
                 WEL =           0.0000                   WEL =           0.0000     WEL-1                            
                RCHA =   109038150.0000                  RCHA =      684000.0000     RCH-1                            
                 CHD =           0.0000                   CHD =           0.0000     CHD-FROM-IBOUND                  

            TOTAL IN =   123262012.1143              TOTAL IN =      691203.8964

          OUT:                                     OUT:
          ----                                     ----
              STO-SS =    77514463.6785                STO-SS =      558542.9401     STORAGE                          
              STO-SY =     2368310.7978                STO-SY =       16946.5459     STORAGE                          
                 WEL =     1800000.0000                   WEL =       20000.0000     WEL-1                            
                RCHA =           0.0000                  RCHA =           0.0000     RCH-1                            
                 CHD =    41579239.1674                   CHD =       95714.4106     CHD-FROM-IBOUND                  

           TOTAL OUT =   123262013.6437             TOTAL OUT =      691203.8966

            IN - OUT =          -1.5293              IN - OUT =      -1.0802E-04

 PERCENT DISCREPANCY =          -0.00     PERCENT DISCREPANCY =          -0.00




         TIME SUMMARY AT END OF TIME STEP    8 IN STRESS PERIOD   16
                    SECONDS     MINUTES      HOURS       DAYS        YEARS
                    -----------------------------------------------------------
   TIME STEP LENGTH 5.81680E+05  9694.7      161.58      6.7324     1.84323E-02
 STRESS PERIOD TIME 2.67840E+06  44640.      744.00      31.000     8.48734E-02
         TOTAL TIME 3.93984E+07 6.56640E+05  10944.      456.00      1.2485    


end timestep


start timestep kper="17" kstp="1" mode="normal"


 OUTPUT CONTROL FOR STRESS PERIOD 17 IS REPEATED USING SETTINGS FROM A PREVIOUS STRESS PERIOD.


 STRESS PERIOD 17 IS TRANSIENT


 REUSING WELS FROM LAST STRESS PERIOD

 REUSING CHDS FROM LAST STRESS PERIOD
 UBDSV1 SAVING     FLOW-JA-FACE ON UNIT   1015 AT TIME STEP      1, STRESS PERIOD     17
 UBDSV06 SAVING              WEL IN MODEL MUMODEL          PACKAGE MUMODEL         CONNECTED TO MODEL MUMODEL          PACKAGE WEL-1            ON UNIT   1015 AT TIME STEP      1, STRESS PERIOD     17
 UBDSV06 SAVING             RCHA IN MODEL MUMODEL          PACKAGE MUMODEL         CONNECTED TO MODEL MUMODEL          PACKAGE RCH-1            ON UNIT   1015 AT TIME STEP      1, STRESS PERIOD     17

 WEL PACKAGE (WEL-1) FLOW RATES   PERIOD     17   STEP        1
 -----------------------------------------------
   NUMBER   CELLID                    RATE      
 -----------------------------------------------
     1      (1,5,5)              -20000.000     
     2      (1,11,5)              0.0000000     
     3      (1,5,5)               0.0000000     
 -----------------------------------------------




 CHD PACKAGE (CHD-FROM-IBOUND) FLOW RATES   PERIOD     17   STEP        1
 -----------------------------------------------
   NUMBER   CELLID                    RATE      
 -----------------------------------------------
     1      (1,1,1)              -5324.5468     
     2      (1,1,2)              -5324.5452     
     3      (1,1,3)              -5324.5376     
     4      (1,1,4)              -5324.4581     
     5      (1,1,5)              -5323.9927     
     6      (1,1,6)              -5324.4601     
     7      (1,1,7)              -5324.5413     
     8      (1,1,8)              -5324.5501     
     9      (1,1,9)              -5324.5519     
     10     (1,21,1)             -5324.5499     
     11     (1,21,2)             -5324.5483     
     12     (1,21,3)             -5324.5465     
     13     (1,21,4)             -5324.5452     
     14     (1,21,5)             -5324.5441     
     15     (1,21,6)             -5324.5434     
     16     (1,21,7)             -5324.5435     
     17     (1,21,8)             -5324.5453     
     18     (1,21,9)             -5324.5478     
 -----------------------------------------------




 HEAD WILL BE SAVED ON UNIT 1016 AT END OF TIME STEP    1, STRESS PERIOD   17


  VOLUME BUDGET FOR ENTIRE MODEL AT END OF TIME STEP    1, STRESS PERIOD  17
  ---------------------------------------------------------------------------------------------------

     CUMULATIVE VOLUME      L**3       RATES FOR THIS TIME STEP      L**3/T          PACKAGE NAME    
     ------------------                 ------------------------                     ----------------

           IN:                                      IN:
           ---                                      ---
              STO-SS =    13804227.5586                STO-SS =        7829.6010     STORAGE                          
              STO-SY =      434327.4191                STO-SY =         251.0257     STORAGE                          
                 WEL =           0.0000                   WEL =           0.0000     WEL-1                            
                RCHA =   109970929.0109                  RCHA =      513000.0000     RCH-1                            
                 CHD =           0.0000                   CHD =           0.0000     CHD-FROM-IBOUND                  

            TOTAL IN =   124209483.9886              TOTAL IN =      521080.6266

          OUT:                                     OUT:
          ----                                     ----
              STO-SS =    78229662.6048                STO-SS =      393337.5911     STORAGE                          
              STO-SY =     2389951.8862                STO-SY =       11901.9384     STORAGE                          
                 WEL =     1836365.6534                   WEL =       20000.0000     WEL-1                            
                RCHA =           0.0000                  RCHA =           0.0000     RCH-1                            
                 CHD =    41753505.3748                   CHD =       95841.0978     CHD-FROM-IBOUND                  

           TOTAL OUT =   124209485.5192             TOTAL OUT =      521080.6274

            IN - OUT =          -1.5306              IN - OUT =      -7.1521E-04

 PERCENT DISCREPANCY =          -0.00     PERCENT DISCREPANCY =          -0.00




         TIME SUMMARY AT END OF TIME STEP    1 IN STRESS PERIOD   17
                    SECONDS     MINUTES      HOURS       DAYS        YEARS
                    -----------------------------------------------------------
   TIME STEP LENGTH 1.57100E+05  2618.3      43.639      1.8183     4.97819E-03
 STRESS PERIOD TIME 1.57100E+05  2618.3      43.639      1.8183     4.97819E-03
         TOTAL TIME 3.95555E+07 6.59258E+05  10988.      457.82      1.2534    


end timestep


start timestep kper="17" kstp="2" mode="normal"

 UBDSV1 SAVING     FLOW-JA-FACE ON UNIT   1015 AT TIME STEP      2, STRESS PERIOD     17
 UBDSV06 SAVING              WEL IN MODEL MUMODEL          PACKAGE MUMODEL         CONNECTED TO MODEL MUMODEL          PACKAGE WEL-1            ON UNIT   1015 AT TIME STEP      2, STRESS PERIOD     17
 UBDSV06 SAVING             RCHA IN MODEL MUMODEL          PACKAGE MUMODEL         CONNECTED TO MODEL MUMODEL          PACKAGE RCH-1            ON UNIT   1015 AT TIME STEP      2, STRESS PERIOD     17

 WEL PACKAGE (WEL-1) FLOW RATES   PERIOD     17   STEP        2
 -----------------------------------------------
   NUMBER   CELLID                    RATE      
 -----------------------------------------------
     1      (1,5,5)              -20000.000     
     2      (1,11,5)              0.0000000     
     3      (1,5,5)               0.0000000     
 -----------------------------------------------




 CHD PACKAGE (CHD-FROM-IBOUND) FLOW RATES   PERIOD     17   STEP        2
 -----------------------------------------------
   NUMBER   CELLID                    RATE      
 -----------------------------------------------
     1      (1,1,1)              -5332.9665     
     2      (1,1,2)              -5332.9649     
     3      (1,1,3)              -5332.9564     
     4      (1,1,4)              -5332.8695     
     5      (1,1,5)              -5332.3696     
     6      (1,1,6)              -5332.8714     
     7      (1,1,7)              -5332.9601     
     8      (1,1,8)              -5332.9697     
     9      (1,1,9)              -5332.9716     
     10     (1,21,1)             -5332.9696     
     11     (1,21,2)             -5332.9680     
     12     (1,21,3)             -5332.9662     
     13     (1,21,4)             -5332.9649     
     14     (1,21,5)             -5332.9639     
     15     (1,21,6)             -5332.9631     
     16     (1,21,7)             -5332.9633     
     17     (1,21,8)             -5332.9651     
     18     (1,21,9)             -5332.9675     
 -----------------------------------------------




 HEAD WILL BE SAVED ON UNIT 1016 AT END OF TIME STEP    2, STRESS PERIOD   17


  VOLUME BUDGET FOR ENTIRE MODEL AT END OF TIME STEP    2, STRESS PERIOD  17
  ---------------------------------------------------------------------------------------------------

     CUMULATIVE VOLUME      L**3       RATES FOR THIS TIME STEP      L**3/T          PACKAGE NAME    
     ------------------                 ------------------------                     ----------------

           IN:                                      IN:
           ---                                      ---
              STO-SS =    13821003.9767                STO-SS =        7688.7651     STORAGE                          
              STO-SY =      434865.6329                STO-SY =         246.6676     STORAGE                          
                 WEL =           0.0000                   WEL =           0.0000     WEL-1                            
                RCHA =   111090263.8239                  RCHA =      513000.0000     RCH-1                            
                 CHD =           0.0000                   CHD =           0.0000     CHD-FROM-IBOUND                  

            TOTAL IN =   125346133.4335              TOTAL IN =      520935.4328

          OUT:                                     OUT:
          ----                                     ----
              STO-SS =    79087280.4650                STO-SS =      393053.0500     STORAGE                          
              STO-SY =     2415894.6904                STO-SY =       11889.7924     STORAGE                          
                 WEL =     1880004.4376                   WEL =       20000.0000     WEL-1                            
                RCHA =           0.0000                  RCHA =           0.0000     RCH-1                            
                 CHD =    41962955.3738                   CHD =       95992.5915     CHD-FROM-IBOUND                  

           TOTAL OUT =   125346134.9668             TOTAL OUT =      520935.4340

            IN - OUT =          -1.5333              IN - OUT =      -1.2194E-03

 PERCENT DISCREPANCY =          -0.00     PERCENT DISCREPANCY =          -0.00




         TIME SUMMARY AT END OF TIME STEP    2 IN STRESS PERIOD   17
                    SECONDS     MINUTES      HOURS       DAYS        YEARS
                    -----------------------------------------------------------
   TIME STEP LENGTH 1.88520E+05  3142.0      52.367      2.1819     5.97382E-03
 STRESS PERIOD TIME 3.45619E+05  5760.3      96.005      4.0002     1.09520E-02
         TOTAL TIME 3.97440E+07 6.62400E+05  11040.      460.00      1.2594    


end timestep


start timestep kper="17" kstp="3" mode="normal"

 UBDSV1 SAVING     FLOW-JA-FACE ON UNIT   1015 AT TIME STEP      3, STRESS PERIOD     17
 UBDSV06 SAVING              WEL IN MODEL MUMODEL          PACKAGE MUMODEL         CONNECTED TO MODEL MUMODEL          PACKAGE WEL-1            ON UNIT   1015 AT TIME STEP      3, STRESS PERIOD     17
 UBDSV06 SAVING             RCHA IN MODEL MUMODEL          PACKAGE MUMODEL         CONNECTED TO MODEL MUMODEL          PACKAGE RCH-1            ON UNIT   1015 AT TIME STEP      3, STRESS PERIOD     17

 WEL PACKAGE (WEL-1) FLOW RATES   PERIOD     17   STEP        3
 -----------------------------------------------
   NUMBER   CELLID                    RATE      
 -----------------------------------------------
     1      (1,5,5)              -20000.000     
     2      (1,11,5)              0.0000000     
     3      (1,5,5)               0.0000000     
 -----------------------------------------------




 CHD PACKAGE (CHD-FROM-IBOUND) FLOW RATES   PERIOD     17   STEP        3
 -----------------------------------------------
   NUMBER   CELLID                    RATE      
 -----------------------------------------------
     1      (1,1,1)              -5343.0288     
     2      (1,1,2)              -5343.0271     
     3      (1,1,3)              -5343.0176     
     4      (1,1,4)              -5342.9208     
     5      (1,1,5)              -5342.3774     
     6      (1,1,6)              -5342.9227     
     7      (1,1,7)              -5343.0213     
     8      (1,1,8)              -5343.0319     
     9      (1,1,9)              -5343.0339     
     10     (1,21,1)             -5343.0319     
     11     (1,21,2)             -5343.0303     
     12     (1,21,3)             -5343.0285     
     13     (1,21,4)             -5343.0272     
     14     (1,21,5)             -5343.0262     
     15     (1,21,6)             -5343.0254     
     16     (1,21,7)             -5343.0256     
     17     (1,21,8)             -5343.0274     
     18     (1,21,9)             -5343.0298     
 -----------------------------------------------




 HEAD WILL BE SAVED ON UNIT 1016 AT END OF TIME STEP    3, STRESS PERIOD   17


  VOLUME BUDGET FOR ENTIRE MODEL AT END OF TIME STEP    3, STRESS PERIOD  17
  ---------------------------------------------------------------------------------------------------

     CUMULATIVE VOLUME      L**3       RATES FOR THIS TIME STEP      L**3/T          PACKAGE NAME    
     ------------------                 ------------------------                     ----------------

           IN:                                      IN:
           ---                                      ---
              STO-SS =    13840702.9687                STO-SS =        7523.5033     STORAGE                          
              STO-SY =      435498.0825                STO-SY =         241.5472     STORAGE                          
                 WEL =           0.0000                   WEL =           0.0000     WEL-1                            
                RCHA =   112433465.5996                  RCHA =      513000.0000     RCH-1                            
                 CHD =           0.0000                   CHD =           0.0000     CHD-FROM-IBOUND                  

            TOTAL IN =   126709666.6509              TOTAL IN =      520765.0505

          OUT:                                     OUT:
          ----                                     ----
              STO-SS =    80115539.5108                STO-SS =      392716.0462     STORAGE                          
              STO-SY =     2446988.3001                STO-SY =       11875.3728     STORAGE                          
                 WEL =     1932370.9785                   WEL =       20000.0000     WEL-1                            
                RCHA =           0.0000                  RCHA =           0.0000     RCH-1                            
                 CHD =    42214769.4000                   CHD =       96173.6336     CHD-FROM-IBOUND                  

           TOTAL OUT =   126709668.1895             TOTAL OUT =      520765.0525

            IN - OUT =          -1.5387              IN - OUT =      -2.0668E-03

 PERCENT DISCREPANCY =          -0.00     PERCENT DISCREPANCY =          -0.00




         TIME SUMMARY AT END OF TIME STEP    3 IN STRESS PERIOD   17
                    SECONDS     MINUTES      HOURS       DAYS        YEARS
                    -----------------------------------------------------------
   TIME STEP LENGTH 2.26223E+05  3770.4      62.840      2.6183     7.16859E-03
 STRESS PERIOD TIME 5.71843E+05  9530.7      158.85      6.6185     1.81206E-02
         TOTAL TIME 3.99702E+07 6.66171E+05  11103.      462.62      1.2666    


end timestep


start timestep kper="17" kstp="4" mode="normal"

 UBDSV1 SAVING     FLOW-JA-FACE ON UNIT   1015 AT TIME STEP      4, STRESS PERIOD     17
 UBDSV06 SAVING              WEL IN MODEL MUMODEL          PACKAGE MUMODEL         CONNECTED TO MODEL MUMODEL          PACKAGE WEL-1            ON UNIT   1015 AT TIME STEP      4, STRESS PERIOD     17
 UBDSV06 SAVING             RCHA IN MODEL MUMODEL          PACKAGE MUMODEL         CONNECTED TO MODEL MUMODEL          PACKAGE RCH-1            ON UNIT   1015 AT TIME STEP      4, STRESS PERIOD     17

 WEL PACKAGE (WEL-1) FLOW RATES   PERIOD     17   STEP        4
 -----------------------------------------------
   NUMBER   CELLID                    RATE      
 -----------------------------------------------
     1      (1,5,5)              -20000.000     
     2      (1,11,5)              0.0000000     
     3      (1,5,5)               0.0000000     
 -----------------------------------------------




 CHD PACKAGE (CHD-FROM-IBOUND) FLOW RATES   PERIOD     17   STEP        4
 -----------------------------------------------
   NUMBER   CELLID                    RATE      
 -----------------------------------------------
     1      (1,1,1)              -5355.0445     
     2      (1,1,2)              -5355.0427     
     3      (1,1,3)              -5355.0318     
     4      (1,1,4)              -5354.9221     
     5      (1,1,5)              -5354.3228     
     6      (1,1,6)              -5354.9240     
     7      (1,1,7)              -5355.0355     
     8      (1,1,8)              -5355.0475     
     9      (1,1,9)              -5355.0496     
     10     (1,21,1)             -5355.0476     
     11     (1,21,2)             -5355.0460     
     12     (1,21,3)             -5355.0443     
     13     (1,21,4)             -5355.0430     
     14     (1,21,5)             -5355.0420     
     15     (1,21,6)             -5355.0412     
     16     (1,21,7)             -5355.0414     
     17     (1,21,8)             -5355.0432     
     18     (1,21,9)             -5355.0456     
 -----------------------------------------------




 HEAD WILL BE SAVED ON UNIT 1016 AT END OF TIME STEP    4, STRESS PERIOD   17


  VOLUME BUDGET FOR ENTIRE MODEL AT END OF TIME STEP    4, STRESS PERIOD  17
  ---------------------------------------------------------------------------------------------------

     CUMULATIVE VOLUME      L**3       RATES FOR THIS TIME STEP      L**3/T          PACKAGE NAME    
     ------------------                 ------------------------                     ----------------

           IN:                                      IN:
           ---                                      ---
              STO-SS =    13863735.0690                STO-SS =        7330.4123     STORAGE                          
              STO-SY =      436238.1962                STO-SY =         235.5555     STORAGE                          
                 WEL =           0.0000                   WEL =           0.0000     WEL-1                            
                RCHA =   114045307.7303                  RCHA =      513000.0000     RCH-1                            
                 CHD =           0.0000                   CHD =           0.0000     CHD-FROM-IBOUND                  

            TOTAL IN =   128345280.9955              TOTAL IN =      520565.9678

          OUT:                                     OUT:
          ----                                     ----
              STO-SS =    81348199.2965                STO-SS =      392317.8691     STORAGE                          
              STO-SY =     2484246.9497                STO-SY =       11858.2874     STORAGE                          
                 WEL =     1995210.8277                   WEL =       20000.0000     WEL-1                            
                RCHA =           0.0000                  RCHA =           0.0000     RCH-1                            
                 CHD =    42517625.4713                   CHD =       96389.8149     CHD-FROM-IBOUND                  

           TOTAL OUT =   128345282.5451             TOTAL OUT =      520565.9713

            IN - OUT =          -1.5497              IN - OUT =      -3.4920E-03

 PERCENT DISCREPANCY =          -0.00     PERCENT DISCREPANCY =          -0.00




         TIME SUMMARY AT END OF TIME STEP    4 IN STRESS PERIOD   17
                    SECONDS     MINUTES      HOURS       DAYS        YEARS
                    -----------------------------------------------------------
   TIME STEP LENGTH 2.71468E+05  4524.5      75.408      3.1420     8.60231E-03
 STRESS PERIOD TIME 8.43311E+05  14055.      234.25      9.7605     2.67229E-02
         TOTAL TIME 4.02417E+07 6.70695E+05  11178.      465.76      1.2752    


end timestep


start timestep kper="17" kstp="5" mode="normal"

 UBDSV1 SAVING     FLOW-JA-FACE ON UNIT   1015 AT TIME STEP      5, STRESS PERIOD     17
 UBDSV06 SAVING              WEL IN MODEL MUMODEL          PACKAGE MUMODEL         CONNECTED TO MODEL MUMODEL          PACKAGE WEL-1            ON UNIT   1015 AT TIME STEP      5, STRESS PERIOD     17
 UBDSV06 SAVING             RCHA IN MODEL MUMODEL          PACKAGE MUMODEL         CONNECTED TO MODEL MUMODEL          PACKAGE RCH-1            ON UNIT   1015 AT TIME STEP      5, STRESS PERIOD     17

 WEL PACKAGE (WEL-1) FLOW RATES   PERIOD     17   STEP        5
 -----------------------------------------------
   NUMBER   CELLID                    RATE      
 -----------------------------------------------
     1      (1,5,5)              -20000.000     
     2      (1,11,5)              0.0000000     
     3      (1,5,5)               0.0000000     
 -----------------------------------------------




 CHD PACKAGE (CHD-FROM-IBOUND) FLOW RATES   PERIOD     17   STEP        5
 -----------------------------------------------
   NUMBER   CELLID                    RATE      
 -----------------------------------------------
     1      (1,1,1)              -5369.3796     
     2      (1,1,2)              -5369.3777     
     3      (1,1,3)              -5369.3647     
     4      (1,1,4)              -5369.2377     
     5      (1,1,5)              -5368.5664     
     6      (1,1,6)              -5369.2396     
     7      (1,1,7)              -5369.3684     
     8      (1,1,8)              -5369.3825     
     9      (1,1,9)              -5369.3847     
     10     (1,21,1)             -5369.3827     
     11     (1,21,2)             -5369.3811     
     12     (1,21,3)             -5369.3794     
     13     (1,21,4)             -5369.3781     
     14     (1,21,5)             -5369.3771     
     15     (1,21,6)             -5369.3763     
     16     (1,21,7)             -5369.3765     
     17     (1,21,8)             -5369.3783     
     18     (1,21,9)             -5369.3807     
 -----------------------------------------------




 HEAD WILL BE SAVED ON UNIT 1016 AT END OF TIME STEP    5, STRESS PERIOD   17


  VOLUME BUDGET FOR ENTIRE MODEL AT END OF TIME STEP    5, STRESS PERIOD  17
  ---------------------------------------------------------------------------------------------------

     CUMULATIVE VOLUME      L**3       RATES FOR THIS TIME STEP      L**3/T          PACKAGE NAME    
     ------------------                 ------------------------                     ----------------

           IN:                                      IN:
           ---                                      ---
              STO-SS =    13890527.2889                STO-SS =        7105.9527     STORAGE                          
              STO-SY =      437100.0248                STO-SY =         228.5780     STORAGE                          
                 WEL =           0.0000                   WEL =           0.0000     WEL-1                            
                RCHA =   115979518.2873                  RCHA =      513000.0000     RCH-1                            
                 CHD =           0.0000                   CHD =           0.0000     CHD-FROM-IBOUND                  

            TOTAL IN =   130307145.6009              TOTAL IN =      520334.5308

          OUT:                                     OUT:
          ----                                     ----
              STO-SS =    82825622.2208                STO-SS =      391848.7351     STORAGE                          
              STO-SY =     2528881.1765                STO-SY =       11838.0898     STORAGE                          
                 WEL =     2070618.6467                   WEL =       20000.0000     WEL-1                            
                RCHA =           0.0000                  RCHA =           0.0000     RCH-1                            
                 CHD =    42882025.1288                   CHD =       96647.7117     CHD-FROM-IBOUND                  

           TOTAL OUT =   130307147.1727             TOTAL OUT =      520334.5367

            IN - OUT =          -1.5718              IN - OUT =      -5.8633E-03

 PERCENT DISCREPANCY =          -0.00     PERCENT DISCREPANCY =          -0.00




         TIME SUMMARY AT END OF TIME STEP    5 IN STRESS PERIOD   17
                    SECONDS     MINUTES      HOURS       DAYS        YEARS
                    -----------------------------------------------------------
   TIME STEP LENGTH 3.25762E+05  5429.4      90.489      3.7704     1.03228E-02
 STRESS PERIOD TIME 1.16907E+06  19485.      324.74      13.531     3.70457E-02
         TOTAL TIME 4.05675E+07 6.76125E+05  11269.      469.53      1.2855    


end timestep


start timestep kper="17" kstp="6" mode="normal"

 UBDSV1 SAVING     FLOW-JA-FACE ON UNIT   1015 AT TIME STEP      6, STRESS PERIOD     17
 UBDSV06 SAVING              WEL IN MODEL MUMODEL          PACKAGE MUMODEL         CONNECTED TO MODEL MUMODEL          PACKAGE WEL-1            ON UNIT   1015 AT TIME STEP      6, STRESS PERIOD     17
 UBDSV06 SAVING             RCHA IN MODEL MUMODEL          PACKAGE MUMODEL         CONNECTED TO MODEL MUMODEL          PACKAGE RCH-1            ON UNIT   1015 AT TIME STEP      6, STRESS PERIOD     17

 WEL PACKAGE (WEL-1) FLOW RATES   PERIOD     17   STEP        6
 -----------------------------------------------
   NUMBER   CELLID                    RATE      
 -----------------------------------------------
     1      (1,5,5)              -20000.000     
     2      (1,11,5)              0.0000000     
     3      (1,5,5)               0.0000000     
 -----------------------------------------------




 CHD PACKAGE (CHD-FROM-IBOUND) FLOW RATES   PERIOD     17   STEP        6
 -----------------------------------------------
   NUMBER   CELLID                    RATE      
 -----------------------------------------------
     1      (1,1,1)              -5386.4629     
     2      (1,1,2)              -5386.4608     
     3      (1,1,3)              -5386.4450     
     4      (1,1,4)              -5386.2944     
     5      (1,1,5)              -5385.5290     
     6      (1,1,6)              -5386.2963     
     7      (1,1,7)              -5386.4486     
     8      (1,1,8)              -5386.4655     
     9      (1,1,9)              -5386.4679     
     10     (1,21,1)             -5386.4660     
     11     (1,21,2)             -5386.4644     
     12     (1,21,3)             -5386.4627     
     13     (1,21,4)             -5386.4614     
     14     (1,21,5)             -5386.4604     
     15     (1,21,6)             -5386.4597     
     16     (1,21,7)             -5386.4599     
     17     (1,21,8)             -5386.4617     
     18     (1,21,9)             -5386.4640     
 -----------------------------------------------




 HEAD WILL BE SAVED ON UNIT 1016 AT END OF TIME STEP    6, STRESS PERIOD   17


  VOLUME BUDGET FOR ENTIRE MODEL AT END OF TIME STEP    6, STRESS PERIOD  17
  ---------------------------------------------------------------------------------------------------

     CUMULATIVE VOLUME      L**3       RATES FOR THIS TIME STEP      L**3/T          PACKAGE NAME    
     ------------------                 ------------------------                     ----------------

           IN:                                      IN:
           ---                                      ---
              STO-SS =    13921504.4862                STO-SS =        6846.5927     STORAGE                          
              STO-SY =      438097.6655                STO-SY =         220.4990     STORAGE                          
                 WEL =           0.0000                   WEL =           0.0000     WEL-1                            
                RCHA =   118300570.9556                  RCHA =      513000.0000     RCH-1                            
                 CHD =           0.0000                   CHD =           0.0000     CHD-FROM-IBOUND                  

            TOTAL IN =   132660173.1073              TOTAL IN =      520067.0917

          OUT:                                     OUT:
          ----                                     ----
              STO-SS =    84596037.0167                STO-SS =      391297.7946     STORAGE                          
              STO-SY =     2582334.5048                STO-SY =       11814.2763     STORAGE                          
                 WEL =     2161108.0295                   WEL =       20000.0000     WEL-1                            
                RCHA =           0.0000                  RCHA =           0.0000     RCH-1                            
                 CHD =    43320695.1725                   CHD =       96955.0306     CHD-FROM-IBOUND                  

           TOTAL OUT =   132660174.7234             TOTAL OUT =      520067.1015

            IN - OUT =          -1.6161              IN - OUT =      -9.7980E-03

 PERCENT DISCREPANCY =          -0.00     PERCENT DISCREPANCY =          -0.00




         TIME SUMMARY AT END OF TIME STEP    6 IN STRESS PERIOD   17
                    SECONDS     MINUTES      HOURS       DAYS        YEARS
                    -----------------------------------------------------------
   TIME STEP LENGTH 3.90914E+05  6515.2      108.59      4.5245     1.23873E-02
 STRESS PERIOD TIME 1.55999E+06  26000.      433.33      18.055     4.94330E-02
         TOTAL TIME 4.09584E+07 6.82640E+05  11377.      474.06      1.2979    


end timestep


start timestep kper="17" kstp="7" mode="normal"

 UBDSV1 SAVING     FLOW-JA-FACE ON UNIT   1015 AT TIME STEP      7, STRESS PERIOD     17
 UBDSV06 SAVING              WEL IN MODEL MUMODEL          PACKAGE MUMODEL         CONNECTED TO MODEL MUMODEL          PACKAGE WEL-1            ON UNIT   1015 AT TIME STEP      7, STRESS PERIOD     17
 UBDSV06 SAVING             RCHA IN MODEL MUMODEL          PACKAGE MUMODEL         CONNECTED TO MODEL MUMODEL          PACKAGE RCH-1            ON UNIT   1015 AT TIME STEP      7, STRESS PERIOD     17

 WEL PACKAGE (WEL-1) FLOW RATES   PERIOD     17   STEP        7
 -----------------------------------------------
   NUMBER   CELLID                    RATE      
 -----------------------------------------------
     1      (1,5,5)              -20000.000     
     2      (1,11,5)              0.0000000     
     3      (1,5,5)               0.0000000     
 -----------------------------------------------




 CHD PACKAGE (CHD-FROM-IBOUND) FLOW RATES   PERIOD     17   STEP        7
 -----------------------------------------------
   NUMBER   CELLID                    RATE      
 -----------------------------------------------
     1      (1,1,1)              -5406.7949     
     2      (1,1,2)              -5406.7924     
     3      (1,1,3)              -5406.7725     
     4      (1,1,4)              -5406.5893     
     5      (1,1,5)              -5405.6999     
     6      (1,1,6)              -5406.5912     
     7      (1,1,7)              -5406.7761     
     8      (1,1,8)              -5406.7971     
     9      (1,1,9)              -5406.7999     
     10     (1,21,1)             -5406.7979     
     11     (1,21,2)             -5406.7964     
     12     (1,21,3)             -5406.7947     
     13     (1,21,4)             -5406.7934     
     14     (1,21,5)             -5406.7924     
     15     (1,21,6)             -5406.7917     
     16     (1,21,7)             -5406.7919     
     17     (1,21,8)             -5406.7937     
     18     (1,21,9)             -5406.7960     
 -----------------------------------------------




 HEAD WILL BE SAVED ON UNIT 1016 AT END OF TIME STEP    7, STRESS PERIOD   17


  VOLUME BUDGET FOR ENTIRE MODEL AT END OF TIME STEP    7, STRESS PERIOD  17
  ---------------------------------------------------------------------------------------------------

     CUMULATIVE VOLUME      L**3       RATES FOR THIS TIME STEP      L**3/T          PACKAGE NAME    
     ------------------                 ------------------------                     ----------------

           IN:                                      IN:
           ---                                      ---
              STO-SS =    13957061.4797                STO-SS =        6549.0176     STORAGE                          
              STO-SY =      439244.3854                STO-SY =         211.2071     STORAGE                          
                 WEL =           0.0000                   WEL =           0.0000     WEL-1                            
                RCHA =   121085834.1576                  RCHA =      513000.0000     RCH-1                            
                 CHD =           0.0000                   CHD =           0.0000     CHD-FROM-IBOUND                  

            TOTAL IN =   135482140.0227              TOTAL IN =      519760.2246

          OUT:                                     OUT:
          ----                                     ----
              STO-SS =    86717035.0084                STO-SS =      390653.1953     STORAGE                          
              STO-SY =     2646326.5205                STO-SY =       11786.2843     STORAGE                          
                 WEL =     2269695.2888                   WEL =       20000.0000     WEL-1                            
                RCHA =           0.0000                  RCHA =           0.0000     RCH-1                            
                 CHD =    43849084.9093                   CHD =       97320.7612     CHD-FROM-IBOUND                  

           TOTAL OUT =   135482141.7270             TOTAL OUT =      519760.2409

            IN - OUT =          -1.7043              IN - OUT =      -1.6253E-02

 PERCENT DISCREPANCY =          -0.00     PERCENT DISCREPANCY =          -0.00




         TIME SUMMARY AT END OF TIME STEP    7 IN STRESS PERIOD   17
                    SECONDS     MINUTES      HOURS       DAYS        YEARS
                    -----------------------------------------------------------
   TIME STEP LENGTH 4.69097E+05  7818.3      130.30      5.4294     1.48648E-02
 STRESS PERIOD TIME 2.02908E+06  33818.      563.63      23.485     6.42978E-02
         TOTAL TIME 4.14275E+07 6.90458E+05  11508.      479.48      1.3128    


end timestep


start timestep kper="17" kstp="8" mode="normal"

 UBDSV1 SAVING     FLOW-JA-FACE ON UNIT   1015 AT TIME STEP      8, STRESS PERIOD     17
 UBDSV06 SAVING              WEL IN MODEL MUMODEL          PACKAGE MUMODEL         CONNECTED TO MODEL MUMODEL          PACKAGE WEL-1            ON UNIT   1015 AT TIME STEP      8, STRESS PERIOD     17
 UBDSV06 SAVING             RCHA IN MODEL MUMODEL          PACKAGE MUMODEL         CONNECTED TO MODEL MUMODEL          PACKAGE RCH-1            ON UNIT   1015 AT TIME STEP      8, STRESS PERIOD     17

 WEL PACKAGE (WEL-1) FLOW RATES   PERIOD     17   STEP        8
 -----------------------------------------------
   NUMBER   CELLID                    RATE      
 -----------------------------------------------
     1      (1,5,5)              -20000.000     
     2      (1,11,5)              0.0000000     
     3      (1,5,5)               0.0000000     
 -----------------------------------------------




 CHD PACKAGE (CHD-FROM-IBOUND) FLOW RATES   PERIOD     17   STEP        8
 -----------------------------------------------
   NUMBER   CELLID                    RATE      
 -----------------------------------------------
     1      (1,1,1)              -5430.9566     
     2      (1,1,2)              -5430.9536     
     3      (1,1,3)              -5430.9275     
     4      (1,1,4)              -5430.6983     
     5      (1,1,5)              -5429.6436     
     6      (1,1,6)              -5430.7002     
     7      (1,1,7)              -5430.9311     
     8      (1,1,8)              -5430.9582     
     9      (1,1,9)              -5430.9615     
     10     (1,21,1)             -5430.9596     
     11     (1,21,2)             -5430.9581     
     12     (1,21,3)             -5430.9564     
     13     (1,21,4)             -5430.9552     
     14     (1,21,5)             -5430.9542     
     15     (1,21,6)             -5430.9535     
     16     (1,21,7)             -5430.9537     
     17     (1,21,8)             -5430.9555     
     18     (1,21,9)             -5430.9577     
 -----------------------------------------------




 HEAD WILL BE SAVED ON UNIT 1016 AT END OF TIME STEP    8, STRESS PERIOD   17


  VOLUME BUDGET FOR ENTIRE MODEL AT END OF TIME STEP    8, STRESS PERIOD  17
  ---------------------------------------------------------------------------------------------------

     CUMULATIVE VOLUME      L**3       RATES FOR THIS TIME STEP      L**3/T          PACKAGE NAME    
     ------------------                 ------------------------                     ----------------

           IN:                                      IN:
           ---                                      ---
              STO-SS =    13997523.7820                STO-SS =        6210.4128     STORAGE                          
              STO-SY =      440551.3709                STO-SY =         200.6045     STORAGE                          
                 WEL =           0.0000                   WEL =           0.0000     WEL-1                            
                RCHA =   124428150.0000                  RCHA =      513000.0000     RCH-1                            
                 CHD =           0.0000                   CHD =           0.0000     CHD-FROM-IBOUND                  

            TOTAL IN =   138866225.1529              TOTAL IN =      519411.0173

          OUT:                                     OUT:
          ----                                     ----
              STO-SS =    89257339.6174                STO-SS =      389902.1893     STORAGE                          
              STO-SY =     2722903.2991                STO-SY =       11753.4935     STORAGE                          
                 WEL =     2400000.0000                   WEL =       20000.0000     WEL-1                            
                RCHA =           0.0000                  RCHA =           0.0000     RCH-1                            
                 CHD =    44485983.9411                   CHD =       97755.3345     CHD-FROM-IBOUND                  

           TOTAL OUT =   138866226.8576             TOTAL OUT =      519411.0173

            IN - OUT =          -1.7047              IN - OUT =      -5.3245E-05

 PERCENT DISCREPANCY =          -0.00     PERCENT DISCREPANCY =          -0.00




         TIME SUMMARY AT END OF TIME STEP    8 IN STRESS PERIOD   17
                    SECONDS     MINUTES      HOURS       DAYS        YEARS
                    -----------------------------------------------------------
   TIME STEP LENGTH 5.62916E+05  9381.9      156.37      6.5152     1.78377E-02
 STRESS PERIOD TIME 2.59200E+06  43200.      720.00      30.000     8.21355E-02
         TOTAL TIME 4.19904E+07 6.99840E+05  11664.      486.00      1.3306    


end timestep


start timestep kper="18" kstp="1" mode="normal"


 OUTPUT CONTROL FOR STRESS PERIOD 18 IS REPEATED USING SETTINGS FROM A PREVIOUS STRESS PERIOD.


 STRESS PERIOD 18 IS TRANSIENT


 REUSING WELS FROM LAST STRESS PERIOD

 REUSING CHDS FROM LAST STRESS PERIOD
 UBDSV1 SAVING     FLOW-JA-FACE ON UNIT   1015 AT TIME STEP      1, STRESS PERIOD     18
 UBDSV06 SAVING              WEL IN MODEL MUMODEL          PACKAGE MUMODEL         CONNECTED TO MODEL MUMODEL          PACKAGE WEL-1            ON UNIT   1015 AT TIME STEP      1, STRESS PERIOD     18
 UBDSV06 SAVING             RCHA IN MODEL MUMODEL          PACKAGE MUMODEL         CONNECTED TO MODEL MUMODEL          PACKAGE RCH-1            ON UNIT   1015 AT TIME STEP      1, STRESS PERIOD     18

 WEL PACKAGE (WEL-1) FLOW RATES   PERIOD     18   STEP        1
 -----------------------------------------------
   NUMBER   CELLID                    RATE      
 -----------------------------------------------
     1      (1,5,5)              -20000.000     
     2      (1,11,5)              0.0000000     
     3      (1,5,5)               0.0000000     
 -----------------------------------------------




 CHD PACKAGE (CHD-FROM-IBOUND) FLOW RATES   PERIOD     18   STEP        1
 -----------------------------------------------
   NUMBER   CELLID                    RATE      
 -----------------------------------------------
     1      (1,1,1)              -5430.9282     
     2      (1,1,2)              -5430.9250     
     3      (1,1,3)              -5430.8971     
     4      (1,1,4)              -5430.6540     
     5      (1,1,5)              -5429.5500     
     6      (1,1,6)              -5430.6558     
     7      (1,1,7)              -5430.9006     
     8      (1,1,8)              -5430.9296     
     9      (1,1,9)              -5430.9331     
     10     (1,21,1)             -5430.9312     
     11     (1,21,2)             -5430.9297     
     12     (1,21,3)             -5430.9280     
     13     (1,21,4)             -5430.9268     
     14     (1,21,5)             -5430.9258     
     15     (1,21,6)             -5430.9251     
     16     (1,21,7)             -5430.9253     
     17     (1,21,8)             -5430.9271     
     18     (1,21,9)             -5430.9293     
 -----------------------------------------------




 HEAD WILL BE SAVED ON UNIT 1016 AT END OF TIME STEP    1, STRESS PERIOD   18


  VOLUME BUDGET FOR ENTIRE MODEL AT END OF TIME STEP    1, STRESS PERIOD  18
  ---------------------------------------------------------------------------------------------------

     CUMULATIVE VOLUME      L**3       RATES FOR THIS TIME STEP      L**3/T          PACKAGE NAME    
     ------------------                 ------------------------                     ----------------

           IN:                                      IN:
           ---                                      ---
              STO-SS =    14023768.9358                STO-SS =       13968.4199     STORAGE                          
              STO-SY =      441385.6165                STO-SY =         444.0093     STORAGE                          
                 WEL =           0.0000                   WEL =           0.0000     WEL-1                            
                RCHA =   124749440.5482                  RCHA =      171000.0000     RCH-1                            
                 CHD =           0.0000                   CHD =           0.0000     CHD-FROM-IBOUND                  

            TOTAL IN =   139214595.1005              TOTAL IN =      185412.4292

          OUT:                                     OUT:
          ----                                     ----
              STO-SS =    89380890.2571                STO-SS =       65757.1768     STORAGE                          
              STO-SY =     2726474.1914                STO-SY =        1900.5308     STORAGE                          
                 WEL =     2437577.8419                   WEL =       20000.0000     WEL-1                            
                RCHA =           0.0000                  RCHA =           0.0000     RCH-1                            
                 CHD =    44669654.5150                   CHD =       97754.7217     CHD-FROM-IBOUND                  

           TOTAL OUT =   139214596.8053             TOTAL OUT =      185412.4293

            IN - OUT =          -1.7049              IN - OUT =      -9.3423E-05

 PERCENT DISCREPANCY =          -0.00     PERCENT DISCREPANCY =          -0.00




         TIME SUMMARY AT END OF TIME STEP    1 IN STRESS PERIOD   18
                    SECONDS     MINUTES      HOURS       DAYS        YEARS
                    -----------------------------------------------------------
   TIME STEP LENGTH 1.62336E+05  2705.6      45.093      1.8789     5.14413E-03
 STRESS PERIOD TIME 1.62336E+05  2705.6      45.093      1.8789     5.14413E-03
         TOTAL TIME 4.21527E+07 7.02546E+05  11709.      487.88      1.3357    


end timestep


start timestep kper="18" kstp="2" mode="normal"

 UBDSV1 SAVING     FLOW-JA-FACE ON UNIT   1015 AT TIME STEP      2, STRESS PERIOD     18
 UBDSV06 SAVING              WEL IN MODEL MUMODEL          PACKAGE MUMODEL         CONNECTED TO MODEL MUMODEL          PACKAGE WEL-1            ON UNIT   1015 AT TIME STEP      2, STRESS PERIOD     18
 UBDSV06 SAVING             RCHA IN MODEL MUMODEL          PACKAGE MUMODEL         CONNECTED TO MODEL MUMODEL          PACKAGE RCH-1            ON UNIT   1015 AT TIME STEP      2, STRESS PERIOD     18

 WEL PACKAGE (WEL-1) FLOW RATES   PERIOD     18   STEP        2
 -----------------------------------------------
   NUMBER   CELLID                    RATE      
 -----------------------------------------------
     1      (1,5,5)              -20000.000     
     2      (1,11,5)              0.0000000     
     3      (1,5,5)               0.0000000     
 -----------------------------------------------




 CHD PACKAGE (CHD-FROM-IBOUND) FLOW RATES   PERIOD     18   STEP        2
 -----------------------------------------------
   NUMBER   CELLID                    RATE      
 -----------------------------------------------
     1      (1,1,1)              -5430.9004     
     2      (1,1,2)              -5430.8970     
     3      (1,1,3)              -5430.8667     
     4      (1,1,4)              -5430.6060     
     5      (1,1,5)              -5429.4411     
     6      (1,1,6)              -5430.6078     
     7      (1,1,7)              -5430.8702     
     8      (1,1,8)              -5430.9016     
     9      (1,1,9)              -5430.9053     
     10     (1,21,1)             -5430.9034     
     11     (1,21,2)             -5430.9019     
     12     (1,21,3)             -5430.9002     
     13     (1,21,4)             -5430.8990     
     14     (1,21,5)             -5430.8980     
     15     (1,21,6)             -5430.8973     
     16     (1,21,7)             -5430.8975     
     17     (1,21,8)             -5430.8993     
     18     (1,21,9)             -5430.9015     
 -----------------------------------------------




 HEAD WILL BE SAVED ON UNIT 1016 AT END OF TIME STEP    2, STRESS PERIOD   18


  VOLUME BUDGET FOR ENTIRE MODEL AT END OF TIME STEP    2, STRESS PERIOD  18
  ---------------------------------------------------------------------------------------------------

     CUMULATIVE VOLUME      L**3       RATES FOR THIS TIME STEP      L**3/T          PACKAGE NAME    
     ------------------                 ------------------------                     ----------------

           IN:                                      IN:
           ---                                      ---
              STO-SS =    14055027.3167                STO-SS =       13863.8354     STORAGE                          
              STO-SY =      442378.9237                STO-SY =         440.5554     STORAGE                          
                 WEL =           0.0000                   WEL =           0.0000     WEL-1                            
                RCHA =   125134989.2060                  RCHA =      171000.0000     RCH-1                            
                 CHD =           0.0000                   CHD =           0.0000     CHD-FROM-IBOUND                  

            TOTAL IN =   139632395.4464              TOTAL IN =      185304.3908

          OUT:                                     OUT:
          ----                                     ----
              STO-SS =    89528916.4520                STO-SS =       65653.1382     STORAGE                          
              STO-SY =     2730751.6592                STO-SY =        1897.1587     STORAGE                          
                 WEL =     2482671.2522                   WEL =       20000.0000     WEL-1                            
                RCHA =           0.0000                  RCHA =           0.0000     RCH-1                            
                 CHD =    44890057.7883                   CHD =       97754.0940     CHD-FROM-IBOUND                  

           TOTAL OUT =   139632397.1517             TOTAL OUT =      185304.3910

            IN - OUT =          -1.7052              IN - OUT =      -1.6566E-04

 PERCENT DISCREPANCY =          -0.00     PERCENT DISCREPANCY =          -0.00




         TIME SUMMARY AT END OF TIME STEP    2 IN STRESS PERIOD   18
                    SECONDS     MINUTES      HOURS       DAYS        YEARS
                    -----------------------------------------------------------
   TIME STEP LENGTH 1.94804E+05  3246.7      54.112      2.2547     6.17295E-03
 STRESS PERIOD TIME 3.57140E+05  5952.3      99.206      4.1336     1.13171E-02
         TOTAL TIME 4.23475E+07 7.05792E+05  11763.      490.13      1.3419    


end timestep


start timestep kper="18" kstp="3" mode="normal"

 UBDSV1 SAVING     FLOW-JA-FACE ON UNIT   1015 AT TIME STEP      3, STRESS PERIOD     18
 UBDSV06 SAVING              WEL IN MODEL MUMODEL          PACKAGE MUMODEL         CONNECTED TO MODEL MUMODEL          PACKAGE WEL-1            ON UNIT   1015 AT TIME STEP      3, STRESS PERIOD     18
 UBDSV06 SAVING             RCHA IN MODEL MUMODEL          PACKAGE MUMODEL         CONNECTED TO MODEL MUMODEL          PACKAGE RCH-1            ON UNIT   1015 AT TIME STEP      3, STRESS PERIOD     18

 WEL PACKAGE (WEL-1) FLOW RATES   PERIOD     18   STEP        3
 -----------------------------------------------
   NUMBER   CELLID                    RATE      
 -----------------------------------------------
     1      (1,5,5)              -20000.000     
     2      (1,11,5)              0.0000000     
     3      (1,5,5)               0.0000000     
 -----------------------------------------------




 CHD PACKAGE (CHD-FROM-IBOUND) FLOW RATES   PERIOD     18   STEP        3
 -----------------------------------------------
   NUMBER   CELLID                    RATE      
 -----------------------------------------------
     1      (1,1,1)              -5430.8770     
     2      (1,1,2)              -5430.8734     
     3      (1,1,3)              -5430.8399     
     4      (1,1,4)              -5430.5569     
     5      (1,1,5)              -5429.3160     
     6      (1,1,6)              -5430.5587     
     7      (1,1,7)              -5430.8434     
     8      (1,1,8)              -5430.8779     
     9      (1,1,9)              -5430.8819     
     10     (1,21,1)             -5430.8800     
     11     (1,21,2)             -5430.8785     
     12     (1,21,3)             -5430.8769     
     13     (1,21,4)             -5430.8756     
     14     (1,21,5)             -5430.8746     
     15     (1,21,6)             -5430.8740     
     16     (1,21,7)             -5430.8742     
     17     (1,21,8)             -5430.8760     
     18     (1,21,9)             -5430.8782     
 -----------------------------------------------




 HEAD WILL BE SAVED ON UNIT 1016 AT END OF TIME STEP    3, STRESS PERIOD   18


  VOLUME BUDGET FOR ENTIRE MODEL AT END OF TIME STEP    3, STRESS PERIOD  18
  ---------------------------------------------------------------------------------------------------

     CUMULATIVE VOLUME      L**3       RATES FOR THIS TIME STEP      L**3/T          PACKAGE NAME    
     ------------------                 ------------------------                     ----------------

           IN:                                      IN:
           ---                                      ---
              STO-SS =    14092249.9121                STO-SS =       13757.5886     STORAGE                          
              STO-SY =      443561.3702                STO-SY =         437.0359     STORAGE                          
                 WEL =           0.0000                   WEL =           0.0000     WEL-1                            
                RCHA =   125597647.5954                  RCHA =      171000.0000     RCH-1                            
                 CHD =           0.0000                   CHD =           0.0000     CHD-FROM-IBOUND                  

            TOTAL IN =   140133458.8776              TOTAL IN =      185194.6246

          OUT:                                     OUT:
          ----                                     ----
              STO-SS =    89706261.7406                STO-SS =       65547.3780     STORAGE                          
              STO-SY =     2735875.3534                STO-SY =        1893.7336     STORAGE                          
                 WEL =     2536783.3445                   WEL =       20000.0000     WEL-1                            
                RCHA =           0.0000                  RCHA =           0.0000     RCH-1                            
                 CHD =    45154540.1451                   CHD =       97753.5133     CHD-FROM-IBOUND                  

           TOTAL OUT =   140133460.5836             TOTAL OUT =      185194.6249

            IN - OUT =          -1.7060              IN - OUT =      -2.7817E-04

 PERCENT DISCREPANCY =          -0.00     PERCENT DISCREPANCY =          -0.00




         TIME SUMMARY AT END OF TIME STEP    3 IN STRESS PERIOD   18
                    SECONDS     MINUTES      HOURS       DAYS        YEARS
                    -----------------------------------------------------------
   TIME STEP LENGTH 2.33764E+05  3896.1      64.935      2.7056     7.40754E-03
 STRESS PERIOD TIME 5.90904E+05  9848.4      164.14      6.8392     1.87246E-02
         TOTAL TIME 4.25813E+07 7.09688E+05  11828.      492.84      1.3493    


end timestep


start timestep kper="18" kstp="4" mode="normal"

 UBDSV1 SAVING     FLOW-JA-FACE ON UNIT   1015 AT TIME STEP      4, STRESS PERIOD     18
 UBDSV06 SAVING              WEL IN MODEL MUMODEL          PACKAGE MUMODEL         CONNECTED TO MODEL MUMODEL          PACKAGE WEL-1            ON UNIT   1015 AT TIME STEP      4, STRESS PERIOD     18
 UBDSV06 SAVING             RCHA IN MODEL MUMODEL          PACKAGE MUMODEL         CONNECTED TO MODEL MUMODEL          PACKAGE RCH-1            ON UNIT   1015 AT TIME STEP      4, STRESS PERIOD     18

 WEL PACKAGE (WEL-1) FLOW RATES   PERIOD     18   STEP        4
 -----------------------------------------------
   NUMBER   CELLID                    RATE      
 -----------------------------------------------
     1      (1,5,5)              -20000.000     
     2      (1,11,5)              0.0000000     
     3      (1,5,5)               0.0000000     
 -----------------------------------------------




 CHD PACKAGE (CHD-FROM-IBOUND) FLOW RATES   PERIOD     18   STEP        4
 -----------------------------------------------
   NUMBER   CELLID                    RATE      
 -----------------------------------------------
     1      (1,1,1)              -5430.8632     
     2      (1,1,2)              -5430.8592     
     3      (1,1,3)              -5430.8216     
     4      (1,1,4)              -5430.5099     
     5      (1,1,5)              -5429.1735     
     6      (1,1,6)              -5430.5117     
     7      (1,1,7)              -5430.8251     
     8      (1,1,8)              -5430.8637     
     9      (1,1,9)              -5430.8681     
     10     (1,21,1)             -5430.8662     
     11     (1,21,2)             -5430.8648     
     12     (1,21,3)             -5430.8631     
     13     (1,21,4)             -5430.8619     
     14     (1,21,5)             -5430.8609     
     15     (1,21,6)             -5430.8602     
     16     (1,21,7)             -5430.8605     
     17     (1,21,8)             -5430.8622     
     18     (1,21,9)             -5430.8644     
 -----------------------------------------------




 HEAD WILL BE SAVED ON UNIT 1016 AT END OF TIME STEP    4, STRESS PERIOD   18


  VOLUME BUDGET FOR ENTIRE MODEL AT END OF TIME STEP    4, STRESS PERIOD  18
  ---------------------------------------------------------------------------------------------------

     CUMULATIVE VOLUME      L**3       RATES FOR THIS TIME STEP      L**3/T          PACKAGE NAME    
     ------------------                 ------------------------                     ----------------

           IN:                                      IN:
           ---                                      ---
              STO-SS =    14136504.8411                STO-SS =       13630.6345     STORAGE                          
              STO-SY =      444966.6510                STO-SY =         432.8302     STORAGE                          
                 WEL =           0.0000                   WEL =           0.0000     WEL-1                            
                RCHA =   126152837.6627                  RCHA =      171000.0000     RCH-1                            
                 CHD =           0.0000                   CHD =           0.0000     CHD-FROM-IBOUND                  

            TOTAL IN =   140734309.1548              TOTAL IN =      185063.4647

          OUT:                                     OUT:
          ----                                     ----
              STO-SS =    89918665.0247                STO-SS =       65420.7698     STORAGE                          
              STO-SY =     2742010.4804                STO-SY =        1889.6352     STORAGE                          
                 WEL =     2601717.8553                   WEL =       20000.0000     WEL-1                            
                RCHA =           0.0000                  RCHA =           0.0000     RCH-1                            
                 CHD =    45471917.5020                   CHD =       97753.0601     CHD-FROM-IBOUND                  

           TOTAL OUT =   140734310.8623             TOTAL OUT =      185063.4651

            IN - OUT =          -1.7075              IN - OUT =      -4.6213E-04

 PERCENT DISCREPANCY =          -0.00     PERCENT DISCREPANCY =          -0.00




         TIME SUMMARY AT END OF TIME STEP    4 IN STRESS PERIOD   18
                    SECONDS     MINUTES      HOURS       DAYS        YEARS
                    -----------------------------------------------------------
   TIME STEP LENGTH 2.80517E+05  4675.3      77.921      3.2467     8.88905E-03
 STRESS PERIOD TIME 8.71421E+05  14524.      242.06      10.086     2.76137E-02
         TOTAL TIME 4.28618E+07 7.14364E+05  11906.      496.09      1.3582    


end timestep


start timestep kper="18" kstp="5" mode="normal"

 UBDSV1 SAVING     FLOW-JA-FACE ON UNIT   1015 AT TIME STEP      5, STRESS PERIOD     18
 UBDSV06 SAVING              WEL IN MODEL MUMODEL          PACKAGE MUMODEL         CONNECTED TO MODEL MUMODEL          PACKAGE WEL-1            ON UNIT   1015 AT TIME STEP      5, STRESS PERIOD     18
 UBDSV06 SAVING             RCHA IN MODEL MUMODEL          PACKAGE MUMODEL         CONNECTED TO MODEL MUMODEL          PACKAGE RCH-1            ON UNIT   1015 AT TIME STEP      5, STRESS PERIOD     18

 WEL PACKAGE (WEL-1) FLOW RATES   PERIOD     18   STEP        5
 -----------------------------------------------
   NUMBER   CELLID                    RATE      
 -----------------------------------------------
     1      (1,5,5)              -20000.000     
     2      (1,11,5)              0.0000000     
     3      (1,5,5)               0.0000000     
 -----------------------------------------------




 CHD PACKAGE (CHD-FROM-IBOUND) FLOW RATES   PERIOD     18   STEP        5
 -----------------------------------------------
   NUMBER   CELLID                    RATE      
 -----------------------------------------------
     1      (1,1,1)              -5430.8667     
     2      (1,1,2)              -5430.8621     
     3      (1,1,3)              -5430.8191     
     4      (1,1,4)              -5430.4699     
     5      (1,1,5)              -5429.0129     
     6      (1,1,6)              -5430.4717     
     7      (1,1,7)              -5430.8225     
     8      (1,1,8)              -5430.8667     
     9      (1,1,9)              -5430.8715     
     10     (1,21,1)             -5430.8698     
     11     (1,21,2)             -5430.8683     
     12     (1,21,3)             -5430.8666     
     13     (1,21,4)             -5430.8654     
     14     (1,21,5)             -5430.8644     
     15     (1,21,6)             -5430.8638     
     16     (1,21,7)             -5430.8640     
     17     (1,21,8)             -5430.8658     
     18     (1,21,9)             -5430.8680     
 -----------------------------------------------




 HEAD WILL BE SAVED ON UNIT 1016 AT END OF TIME STEP    5, STRESS PERIOD   18


  VOLUME BUDGET FOR ENTIRE MODEL AT END OF TIME STEP    5, STRESS PERIOD  18
  ---------------------------------------------------------------------------------------------------

     CUMULATIVE VOLUME      L**3       RATES FOR THIS TIME STEP      L**3/T          PACKAGE NAME    
     ------------------                 ------------------------                     ----------------

           IN:                                      IN:
           ---                                      ---
              STO-SS =    14189096.2456                STO-SS =       13498.5757     STORAGE                          
              STO-SY =      446635.8896                STO-SY =         428.4415     STORAGE                          
                 WEL =           0.0000                   WEL =           0.0000     WEL-1                            
                RCHA =   126819065.7434                  RCHA =      171000.0000     RCH-1                            
                 CHD =           0.0000                   CHD =           0.0000     CHD-FROM-IBOUND                  

            TOTAL IN =   141454797.8786              TOTAL IN =      184927.0172

          OUT:                                     OUT:
          ----                                     ----
              STO-SS =    90173034.7699                STO-SS =       65288.7918     STORAGE                          
              STO-SY =     2749356.0034                STO-SY =        1885.3670     STORAGE                          
                 WEL =     2679639.2682                   WEL =       20000.0000     WEL-1                            
                RCHA =           0.0000                  RCHA =           0.0000     RCH-1                            
                 CHD =    45852769.5475                   CHD =       97752.8592     CHD-FROM-IBOUND                  

           TOTAL OUT =   141454799.5891             TOTAL OUT =      184927.0180

            IN - OUT =          -1.7105              IN - OUT =      -7.6984E-04

 PERCENT DISCREPANCY =          -0.00     PERCENT DISCREPANCY =          -0.00




         TIME SUMMARY AT END OF TIME STEP    5 IN STRESS PERIOD   18
                    SECONDS     MINUTES      HOURS       DAYS        YEARS
                    -----------------------------------------------------------
   TIME STEP LENGTH 3.36621E+05  5610.3      93.506      3.8961     1.06669E-02
 STRESS PERIOD TIME 1.20804E+06  20134.      335.57      13.982     3.82805E-02
         TOTAL TIME 4.31984E+07 7.19974E+05  12000.      499.98      1.3689    


end timestep


start timestep kper="18" kstp="6" mode="normal"

 UBDSV1 SAVING     FLOW-JA-FACE ON UNIT   1015 AT TIME STEP      6, STRESS PERIOD     18
 UBDSV06 SAVING              WEL IN MODEL MUMODEL          PACKAGE MUMODEL         CONNECTED TO MODEL MUMODEL          PACKAGE WEL-1            ON UNIT   1015 AT TIME STEP      6, STRESS PERIOD     18
 UBDSV06 SAVING             RCHA IN MODEL MUMODEL          PACKAGE MUMODEL         CONNECTED TO MODEL MUMODEL          PACKAGE RCH-1            ON UNIT   1015 AT TIME STEP      6, STRESS PERIOD     18

 WEL PACKAGE (WEL-1) FLOW RATES   PERIOD     18   STEP        6
 -----------------------------------------------
   NUMBER   CELLID                    RATE      
 -----------------------------------------------
     1      (1,5,5)              -20000.000     
     2      (1,11,5)              0.0000000     
     3      (1,5,5)               0.0000000     
 -----------------------------------------------




 CHD PACKAGE (CHD-FROM-IBOUND) FLOW RATES   PERIOD     18   STEP        6
 -----------------------------------------------
   NUMBER   CELLID                    RATE      
 -----------------------------------------------
     1      (1,1,1)              -5430.8991     
     2      (1,1,2)              -5430.8938     
     3      (1,1,3)              -5430.8433     
     4      (1,1,4)              -5430.4446     
     5      (1,1,5)              -5428.8339     
     6      (1,1,6)              -5430.4464     
     7      (1,1,7)              -5430.8467     
     8      (1,1,8)              -5430.8983     
     9      (1,1,9)              -5430.9039     
     10     (1,21,1)             -5430.9022     
     11     (1,21,2)             -5430.9007     
     12     (1,21,3)             -5430.8991     
     13     (1,21,4)             -5430.8979     
     14     (1,21,5)             -5430.8969     
     15     (1,21,6)             -5430.8963     
     16     (1,21,7)             -5430.8965     
     17     (1,21,8)             -5430.8983     
     18     (1,21,9)             -5430.9004     
 -----------------------------------------------




 HEAD WILL BE SAVED ON UNIT 1016 AT END OF TIME STEP    6, STRESS PERIOD   18


  VOLUME BUDGET FOR ENTIRE MODEL AT END OF TIME STEP    6, STRESS PERIOD  18
  ---------------------------------------------------------------------------------------------------

     CUMULATIVE VOLUME      L**3       RATES FOR THIS TIME STEP      L**3/T          PACKAGE NAME    
     ------------------                 ------------------------                     ----------------

           IN:                                      IN:
           ---                                      ---
              STO-SS =    14251747.4991                STO-SS =       13400.5213     STORAGE                          
              STO-SY =      448624.5862                STO-SY =         425.3638     STORAGE                          
                 WEL =           0.0000                   WEL =           0.0000     WEL-1                            
                RCHA =   127618539.4403                  RCHA =      171000.0000     RCH-1                            
                 CHD =           0.0000                   CHD =           0.0000     CHD-FROM-IBOUND                  

            TOTAL IN =   142318911.5256              TOTAL IN =      184825.8851

          OUT:                                     OUT:
          ----                                     ----
              STO-SS =    90477818.2992                STO-SS =       65190.3667     STORAGE                          
              STO-SY =     2758156.8589                STO-SY =        1882.4213     STORAGE                          
                 WEL =     2773144.9638                   WEL =       20000.0000     WEL-1                            
                RCHA =           0.0000                  RCHA =           0.0000     RCH-1                            
                 CHD =    46309793.1202                   CHD =       97753.0984     CHD-FROM-IBOUND                  

           TOTAL OUT =   142318913.2421             TOTAL OUT =      184825.8864

            IN - OUT =          -1.7165              IN - OUT =      -1.2777E-03

 PERCENT DISCREPANCY =          -0.00     PERCENT DISCREPANCY =          -0.00




         TIME SUMMARY AT END OF TIME STEP    6 IN STRESS PERIOD   18
                    SECONDS     MINUTES      HOURS       DAYS        YEARS
                    -----------------------------------------------------------
   TIME STEP LENGTH 4.03945E+05  6732.4      112.21      4.6753     1.28002E-02
 STRESS PERIOD TIME 1.61199E+06  26866.      447.77      18.657     5.10808E-02
         TOTAL TIME 4.36024E+07 7.26706E+05  12112.      504.66      1.3817    


end timestep


start timestep kper="18" kstp="7" mode="normal"

 UBDSV1 SAVING     FLOW-JA-FACE ON UNIT   1015 AT TIME STEP      7, STRESS PERIOD     18
 UBDSV06 SAVING              WEL IN MODEL MUMODEL          PACKAGE MUMODEL         CONNECTED TO MODEL MUMODEL          PACKAGE WEL-1            ON UNIT   1015 AT TIME STEP      7, STRESS PERIOD     18
 UBDSV06 SAVING             RCHA IN MODEL MUMODEL          PACKAGE MUMODEL         CONNECTED TO MODEL MUMODEL          PACKAGE RCH-1            ON UNIT   1015 AT TIME STEP      7, STRESS PERIOD     18

 WEL PACKAGE (WEL-1) FLOW RATES   PERIOD     18   STEP        7
 -----------------------------------------------
   NUMBER   CELLID                    RATE      
 -----------------------------------------------
     1      (1,5,5)              -20000.000     
     2      (1,11,5)              0.0000000     
     3      (1,5,5)               0.0000000     
 -----------------------------------------------




 CHD PACKAGE (CHD-FROM-IBOUND) FLOW RATES   PERIOD     18   STEP        7
 -----------------------------------------------
   NUMBER   CELLID                    RATE      
 -----------------------------------------------
     1      (1,1,1)              -5430.9775     
     2      (1,1,2)              -5430.9711     
     3      (1,1,3)              -5430.9101     
     4      (1,1,4)              -5430.4454     
     5      (1,1,5)              -5428.6374     
     6      (1,1,6)              -5430.4472     
     7      (1,1,7)              -5430.9135     
     8      (1,1,8)              -5430.9755     
     9      (1,1,9)              -5430.9822     
     10     (1,21,1)             -5430.9806     
     11     (1,21,2)             -5430.9791     
     12     (1,21,3)             -5430.9775     
     13     (1,21,4)             -5430.9763     
     14     (1,21,5)             -5430.9753     
     15     (1,21,6)             -5430.9747     
     16     (1,21,7)             -5430.9750     
     17     (1,21,8)             -5430.9767     
     18     (1,21,9)             -5430.9789     
 -----------------------------------------------




 HEAD WILL BE SAVED ON UNIT 1016 AT END OF TIME STEP    7, STRESS PERIOD   18


  VOLUME BUDGET FOR ENTIRE MODEL AT END OF TIME STEP    7, STRESS PERIOD  18
  ---------------------------------------------------------------------------------------------------

     CUMULATIVE VOLUME      L**3       RATES FOR THIS TIME STEP      L**3/T          PACKAGE NAME    
     ------------------                 ------------------------                     ----------------

           IN:                                      IN:
           ---                                      ---
              STO-SS =    14326269.8841                STO-SS =       13283.0385     STORAGE                          
              STO-SY =      450990.3364                STO-SY =         421.6767     STORAGE                          
                 WEL =           0.0000                   WEL =           0.0000     WEL-1                            
                RCHA =   128577907.8765                  RCHA =      171000.0000     RCH-1                            
                 CHD =           0.0000                   CHD =           0.0000     CHD-FROM-IBOUND                  

            TOTAL IN =   143355168.0970              TOTAL IN =      184704.7151

          OUT:                                     OUT:
          ----                                     ----
              STO-SS =    90842893.2602                STO-SS =       65071.7868     STORAGE                          
              STO-SY =     2768697.9855                STO-SY =        1878.8743     STORAGE                          
                 WEL =     2885351.7984                   WEL =       20000.0000     WEL-1                            
                RCHA =           0.0000                  RCHA =           0.0000     RCH-1                            
                 CHD =    46858226.7696                   CHD =       97754.0541     CHD-FROM-IBOUND                  

           TOTAL OUT =   143355169.8137             TOTAL OUT =      184704.7152

            IN - OUT =          -1.7167              IN - OUT =      -3.7781E-05

 PERCENT DISCREPANCY =          -0.00     PERCENT DISCREPANCY =          -0.00




         TIME SUMMARY AT END OF TIME STEP    7 IN STRESS PERIOD   18
                    SECONDS     MINUTES      HOURS       DAYS        YEARS
                    -----------------------------------------------------------
   TIME STEP LENGTH 4.84734E+05  8078.9      134.65      5.6103     1.53603E-02
 STRESS PERIOD TIME 2.09672E+06  34945.      582.42      24.268     6.64410E-02
         TOTAL TIME 4.40871E+07 7.34785E+05  12246.      510.27      1.3970    


end timestep


start timestep kper="18" kstp="8" mode="normal"

 UBDSV1 SAVING     FLOW-JA-FACE ON UNIT   1015 AT TIME STEP      8, STRESS PERIOD     18
 UBDSV06 SAVING              WEL IN MODEL MUMODEL          PACKAGE MUMODEL         CONNECTED TO MODEL MUMODEL          PACKAGE WEL-1            ON UNIT   1015 AT TIME STEP      8, STRESS PERIOD     18
 UBDSV06 SAVING             RCHA IN MODEL MUMODEL          PACKAGE MUMODEL         CONNECTED TO MODEL MUMODEL          PACKAGE RCH-1            ON UNIT   1015 AT TIME STEP      8, STRESS PERIOD     18

 WEL PACKAGE (WEL-1) FLOW RATES   PERIOD     18   STEP        8
 -----------------------------------------------
   NUMBER   CELLID                    RATE      
 -----------------------------------------------
     1      (1,5,5)              -20000.000     
     2      (1,11,5)              0.0000000     
     3      (1,5,5)               0.0000000     
 -----------------------------------------------




 CHD PACKAGE (CHD-FROM-IBOUND) FLOW RATES   PERIOD     18   STEP        8
 -----------------------------------------------
   NUMBER   CELLID                    RATE      
 -----------------------------------------------
     1      (1,1,1)              -5431.1264     
     2      (1,1,2)              -5431.1184     
     3      (1,1,3)              -5431.0427     
     4      (1,1,4)              -5430.4882     
     5      (1,1,5)              -5428.4250     
     6      (1,1,6)              -5430.4900     
     7      (1,1,7)              -5431.0460     
     8      (1,1,8)              -5431.1227     
     9      (1,1,9)              -5431.1310     
     10     (1,21,1)             -5431.1295     
     11     (1,21,2)             -5431.1281     
     12     (1,21,3)             -5431.1265     
     13     (1,21,4)             -5431.1253     
     14     (1,21,5)             -5431.1244     
     15     (1,21,6)             -5431.1238     
     16     (1,21,7)             -5431.1241     
     17     (1,21,8)             -5431.1258     
     18     (1,21,9)             -5431.1279     
 -----------------------------------------------




 HEAD WILL BE SAVED ON UNIT 1016 AT END OF TIME STEP    8, STRESS PERIOD   18


  VOLUME BUDGET FOR ENTIRE MODEL AT END OF TIME STEP    8, STRESS PERIOD  18
  ---------------------------------------------------------------------------------------------------

     CUMULATIVE VOLUME      L**3       RATES FOR THIS TIME STEP      L**3/T          PACKAGE NAME    
     ------------------                 ------------------------                     ----------------

           IN:                                      IN:
           ---                                      ---
              STO-SS =    14414783.7097                STO-SS =       13147.4204     STORAGE                          
              STO-SY =      453800.8880                STO-SY =         417.4659     STORAGE                          
                 WEL =           0.0000                   WEL =           0.0000     WEL-1                            
                RCHA =   129729150.0000                  RCHA =      171000.0000     RCH-1                            
                 CHD =           0.0000                   CHD =           0.0000     CHD-FROM-IBOUND                  

            TOTAL IN =   144597734.5977              TOTAL IN =      184564.8863

          OUT:                                     OUT:
          ----                                     ----
              STO-SS =    91280055.2773                STO-SS =       64933.9556     STORAGE                          
              STO-SY =     2781319.9403                STO-SY =        1874.8048     STORAGE                          
                 WEL =     3020000.0000                   WEL =       20000.0000     WEL-1                            
                RCHA =           0.0000                  RCHA =           0.0000     RCH-1                            
                 CHD =    47516361.0971                   CHD =       97756.1259     CHD-FROM-IBOUND                  

           TOTAL OUT =   144597736.3148             TOTAL OUT =      184564.8863

            IN - OUT =          -1.7171              IN - OUT =      -5.7919E-05

 PERCENT DISCREPANCY =          -0.00     PERCENT DISCREPANCY =          -0.00




         TIME SUMMARY AT END OF TIME STEP    8 IN STRESS PERIOD   18
                    SECONDS     MINUTES      HOURS       DAYS        YEARS
                    -----------------------------------------------------------
   TIME STEP LENGTH 5.81680E+05  9694.7      161.58      6.7324     1.84323E-02
 STRESS PERIOD TIME 2.67840E+06  44640.      744.00      31.000     8.48734E-02
         TOTAL TIME 4.46688E+07 7.44480E+05  12408.      517.00      1.4155    


end timestep


start timestep kper="19" kstp="1" mode="normal"


 OUTPUT CONTROL FOR STRESS PERIOD 19 IS REPEATED USING SETTINGS FROM A PREVIOUS STRESS PERIOD.


 STRESS PERIOD 19 IS TRANSIENT


 REUSING WELS FROM LAST STRESS PERIOD

 REUSING CHDS FROM LAST STRESS PERIOD
 UBDSV1 SAVING     FLOW-JA-FACE ON UNIT   1015 AT TIME STEP      1, STRESS PERIOD     19
 UBDSV06 SAVING              WEL IN MODEL MUMODEL          PACKAGE MUMODEL         CONNECTED TO MODEL MUMODEL          PACKAGE WEL-1            ON UNIT   1015 AT TIME STEP      1, STRESS PERIOD     19
 UBDSV06 SAVING             RCHA IN MODEL MUMODEL          PACKAGE MUMODEL         CONNECTED TO MODEL MUMODEL          PACKAGE RCH-1            ON UNIT   1015 AT TIME STEP      1, STRESS PERIOD     19

 WEL PACKAGE (WEL-1) FLOW RATES   PERIOD     19   STEP        1
 -----------------------------------------------
   NUMBER   CELLID                    RATE      
 -----------------------------------------------
     1      (1,5,5)              -20000.000     
     2      (1,11,5)              0.0000000     
     3      (1,5,5)               0.0000000     
 -----------------------------------------------




 CHD PACKAGE (CHD-FROM-IBOUND) FLOW RATES   PERIOD     19   STEP        1
 -----------------------------------------------
   NUMBER   CELLID                    RATE      
 -----------------------------------------------
     1      (1,1,1)              -5429.4826     
     2      (1,1,2)              -5429.4741     
     3      (1,1,3)              -5429.3943     
     4      (1,1,4)              -5428.8148     
     5      (1,1,5)              -5426.6811     
     6      (1,1,6)              -5428.8166     
     7      (1,1,7)              -5429.3976     
     8      (1,1,8)              -5429.4785     
     9      (1,1,9)              -5429.4873     
     10     (1,21,1)             -5429.4858     
     11     (1,21,2)             -5429.4844     
     12     (1,21,3)             -5429.4828     
     13     (1,21,4)             -5429.4816     
     14     (1,21,5)             -5429.4807     
     15     (1,21,6)             -5429.4801     
     16     (1,21,7)             -5429.4804     
     17     (1,21,8)             -5429.4821     
     18     (1,21,9)             -5429.4842     
 -----------------------------------------------




 HEAD WILL BE SAVED ON UNIT 1016 AT END OF TIME STEP    1, STRESS PERIOD   19


  VOLUME BUDGET FOR ENTIRE MODEL AT END OF TIME STEP    1, STRESS PERIOD  19
  ---------------------------------------------------------------------------------------------------

     CUMULATIVE VOLUME      L**3       RATES FOR THIS TIME STEP      L**3/T          PACKAGE NAME    
     ------------------                 ------------------------                     ----------------

           IN:                                      IN:
           ---                                      ---
              STO-SS =    14471445.1715                STO-SS =       31162.0755     STORAGE                          
              STO-SY =      455736.0744                STO-SY =        1064.2935     STORAGE                          
                 WEL =           0.0000                   WEL =           0.0000     WEL-1                            
                RCHA =   129884613.1685                  RCHA =       85500.0000     RCH-1                            
                 CHD =           0.0000                   CHD =           0.0000     CHD-FROM-IBOUND                  

            TOTAL IN =   144811794.4144              TOTAL IN =      117726.3689

          OUT:                                     OUT:
          ----                                     ----
              STO-SS =    91280055.2773                STO-SS =           0.0000     STORAGE                          
              STO-SY =     2781319.9403                STO-SY =           0.0000     STORAGE                          
                 WEL =     3056365.6534                   WEL =       20000.0000     WEL-1                            
                RCHA =           0.0000                  RCHA =           0.0000     RCH-1                            
                 CHD =    47694055.2604                   CHD =       97726.3689     CHD-FROM-IBOUND                  

           TOTAL OUT =   144811796.1315             TOTAL OUT =      117726.3689

            IN - OUT =          -1.7171              IN - OUT =      -1.0627E-05

 PERCENT DISCREPANCY =          -0.00     PERCENT DISCREPANCY =          -0.00




         TIME SUMMARY AT END OF TIME STEP    1 IN STRESS PERIOD   19
                    SECONDS     MINUTES      HOURS       DAYS        YEARS
                    -----------------------------------------------------------
   TIME STEP LENGTH 1.57100E+05  2618.3      43.639      1.8183     4.97819E-03
 STRESS PERIOD TIME 1.57100E+05  2618.3      43.639      1.8183     4.97819E-03
         TOTAL TIME 4.48259E+07 7.47098E+05  12452.      518.82      1.4204    


end timestep


start timestep kper="19" kstp="2" mode="normal"

 UBDSV1 SAVING     FLOW-JA-FACE ON UNIT   1015 AT TIME STEP      2, STRESS PERIOD     19
 UBDSV06 SAVING              WEL IN MODEL MUMODEL          PACKAGE MUMODEL         CONNECTED TO MODEL MUMODEL          PACKAGE WEL-1            ON UNIT   1015 AT TIME STEP      2, STRESS PERIOD     19
 UBDSV06 SAVING             RCHA IN MODEL MUMODEL          PACKAGE MUMODEL         CONNECTED TO MODEL MUMODEL          PACKAGE RCH-1            ON UNIT   1015 AT TIME STEP      2, STRESS PERIOD     19

 WEL PACKAGE (WEL-1) FLOW RATES   PERIOD     19   STEP        2
 -----------------------------------------------
   NUMBER   CELLID                    RATE      
 -----------------------------------------------
     1      (1,5,5)              -20000.000     
     2      (1,11,5)              0.0000000     
     3      (1,5,5)               0.0000000     
 -----------------------------------------------




 CHD PACKAGE (CHD-FROM-IBOUND) FLOW RATES   PERIOD     19   STEP        2
 -----------------------------------------------
   NUMBER   CELLID                    RATE      
 -----------------------------------------------
     1      (1,1,1)              -5427.5235     
     2      (1,1,2)              -5427.5144     
     3      (1,1,3)              -5427.4294     
     4      (1,1,4)              -5426.8187     
     5      (1,1,5)              -5424.5986     
     6      (1,1,6)              -5426.8205     
     7      (1,1,7)              -5427.4327     
     8      (1,1,8)              -5427.5188     
     9      (1,1,9)              -5427.5281     
     10     (1,21,1)             -5427.5267     
     11     (1,21,2)             -5427.5253     
     12     (1,21,3)             -5427.5238     
     13     (1,21,4)             -5427.5226     
     14     (1,21,5)             -5427.5216     
     15     (1,21,6)             -5427.5210     
     16     (1,21,7)             -5427.5213     
     17     (1,21,8)             -5427.5231     
     18     (1,21,9)             -5427.5251     
 -----------------------------------------------




 HEAD WILL BE SAVED ON UNIT 1016 AT END OF TIME STEP    2, STRESS PERIOD   19


  VOLUME BUDGET FOR ENTIRE MODEL AT END OF TIME STEP    2, STRESS PERIOD  19
  ---------------------------------------------------------------------------------------------------

     CUMULATIVE VOLUME      L**3       RATES FOR THIS TIME STEP      L**3/T          PACKAGE NAME    
     ------------------                 ------------------------                     ----------------

           IN:                                      IN:
           ---                                      ---
              STO-SS =    14539364.6745                STO-SS =       31128.0455     STORAGE                          
              STO-SY =      458055.1482                STO-SY =        1062.8498     STORAGE                          
                 WEL =           0.0000                   WEL =           0.0000     WEL-1                            
                RCHA =   130071168.9707                  RCHA =       85500.0000     RCH-1                            
                 CHD =           0.0000                   CHD =           0.0000     CHD-FROM-IBOUND                  

            TOTAL IN =   145068588.7933              TOTAL IN =      117690.8954

          OUT:                                     OUT:
          ----                                     ----
              STO-SS =    91280055.2773                STO-SS =           0.0000     STORAGE                          
              STO-SY =     2781319.9403                STO-SY =           0.0000     STORAGE                          
                 WEL =     3100004.4376                   WEL =       20000.0000     WEL-1                            
                RCHA =           0.0000                  RCHA =           0.0000     RCH-1                            
                 CHD =    47907210.8552                   CHD =       97690.8954     CHD-FROM-IBOUND                  

           TOTAL OUT =   145068590.5104             TOTAL OUT =      117690.8954

            IN - OUT =          -1.7171              IN - OUT =      -1.8298E-05

 PERCENT DISCREPANCY =          -0.00     PERCENT DISCREPANCY =          -0.00




         TIME SUMMARY AT END OF TIME STEP    2 IN STRESS PERIOD   19
                    SECONDS     MINUTES      HOURS       DAYS        YEARS
                    -----------------------------------------------------------
   TIME STEP LENGTH 1.88520E+05  3142.0      52.367      2.1819     5.97382E-03
 STRESS PERIOD TIME 3.45619E+05  5760.3      96.005      4.0002     1.09520E-02
         TOTAL TIME 4.50144E+07 7.50240E+05  12504.      521.00      1.4264    


end timestep


start timestep kper="19" kstp="3" mode="normal"

 UBDSV1 SAVING     FLOW-JA-FACE ON UNIT   1015 AT TIME STEP      3, STRESS PERIOD     19
 UBDSV06 SAVING              WEL IN MODEL MUMODEL          PACKAGE MUMODEL         CONNECTED TO MODEL MUMODEL          PACKAGE WEL-1            ON UNIT   1015 AT TIME STEP      3, STRESS PERIOD     19
 UBDSV06 SAVING             RCHA IN MODEL MUMODEL          PACKAGE MUMODEL         CONNECTED TO MODEL MUMODEL          PACKAGE RCH-1            ON UNIT   1015 AT TIME STEP      3, STRESS PERIOD     19

 WEL PACKAGE (WEL-1) FLOW RATES   PERIOD     19   STEP        3
 -----------------------------------------------
   NUMBER   CELLID                    RATE      
 -----------------------------------------------
     1      (1,5,5)              -20000.000     
     2      (1,11,5)              0.0000000     
     3      (1,5,5)               0.0000000     
 -----------------------------------------------




 CHD PACKAGE (CHD-FROM-IBOUND) FLOW RATES   PERIOD     19   STEP        3
 -----------------------------------------------
   NUMBER   CELLID                    RATE      
 -----------------------------------------------
     1      (1,1,1)              -5425.1921     
     2      (1,1,2)              -5425.1823     
     3      (1,1,3)              -5425.0905     
     4      (1,1,4)              -5424.4408     
     5      (1,1,5)              -5422.1143     
     6      (1,1,6)              -5424.4426     
     7      (1,1,7)              -5425.0939     
     8      (1,1,8)              -5425.1866     
     9      (1,1,9)              -5425.1967     
     10     (1,21,1)             -5425.1954     
     11     (1,21,2)             -5425.1940     
     12     (1,21,3)             -5425.1924     
     13     (1,21,4)             -5425.1912     
     14     (1,21,5)             -5425.1903     
     15     (1,21,6)             -5425.1897     
     16     (1,21,7)             -5425.1900     
     17     (1,21,8)             -5425.1917     
     18     (1,21,9)             -5425.1938     
 -----------------------------------------------




 HEAD WILL BE SAVED ON UNIT 1016 AT END OF TIME STEP    3, STRESS PERIOD   19


  VOLUME BUDGET FOR ENTIRE MODEL AT END OF TIME STEP    3, STRESS PERIOD  19
  ---------------------------------------------------------------------------------------------------

     CUMULATIVE VOLUME      L**3       RATES FOR THIS TIME STEP      L**3/T          PACKAGE NAME    
     ------------------                 ------------------------                     ----------------

           IN:                                      IN:
           ---                                      ---
              STO-SS =    14620762.0158                STO-SS =       31087.5379     STORAGE                          
              STO-SY =      460833.5348                STO-SY =        1061.1305     STORAGE                          
                 WEL =           0.0000                   WEL =           0.0000     WEL-1                            
                RCHA =   130295035.9333                  RCHA =       85500.0000     RCH-1                            
                 CHD =           0.0000                   CHD =           0.0000     CHD-FROM-IBOUND                  

            TOTAL IN =   145376631.4839              TOTAL IN =      117648.6684

          OUT:                                     OUT:
          ----                                     ----
              STO-SS =    91280055.2773                STO-SS =           0.0000     STORAGE                          
              STO-SY =     2781319.9403                STO-SY =           0.0000     STORAGE                          
                 WEL =     3152370.9785                   WEL =       20000.0000     WEL-1                            
                RCHA =           0.0000                  RCHA =           0.0000     RCH-1                            
                 CHD =    48162887.0049                   CHD =       97648.6684     CHD-FROM-IBOUND                  

           TOTAL OUT =   145376633.2011             TOTAL OUT =      117648.6684

            IN - OUT =          -1.7172              IN - OUT =      -3.0009E-05

 PERCENT DISCREPANCY =          -0.00     PERCENT DISCREPANCY =          -0.00




         TIME SUMMARY AT END OF TIME STEP    3 IN STRESS PERIOD   19
                    SECONDS     MINUTES      HOURS       DAYS        YEARS
                    -----------------------------------------------------------
   TIME STEP LENGTH 2.26223E+05  3770.4      62.840      2.6183     7.16859E-03
 STRESS PERIOD TIME 5.71843E+05  9530.7      158.85      6.6185     1.81206E-02
         TOTAL TIME 4.52406E+07 7.54011E+05  12567.      523.62      1.4336    


end timestep


start timestep kper="19" kstp="4" mode="normal"

 UBDSV1 SAVING     FLOW-JA-FACE ON UNIT   1015 AT TIME STEP      4, STRESS PERIOD     19
 UBDSV06 SAVING              WEL IN MODEL MUMODEL          PACKAGE MUMODEL         CONNECTED TO MODEL MUMODEL          PACKAGE WEL-1            ON UNIT   1015 AT TIME STEP      4, STRESS PERIOD     19
 UBDSV06 SAVING             RCHA IN MODEL MUMODEL          PACKAGE MUMODEL         CONNECTED TO MODEL MUMODEL          PACKAGE RCH-1            ON UNIT   1015 AT TIME STEP      4, STRESS PERIOD     19

 WEL PACKAGE (WEL-1) FLOW RATES   PERIOD     19   STEP        4
 -----------------------------------------------
   NUMBER   CELLID                    RATE      
 -----------------------------------------------
     1      (1,5,5)              -20000.000     
     2      (1,11,5)              0.0000000     
     3      (1,5,5)               0.0000000     
 -----------------------------------------------




 CHD PACKAGE (CHD-FROM-IBOUND) FLOW RATES   PERIOD     19   STEP        4
 -----------------------------------------------
   NUMBER   CELLID                    RATE      
 -----------------------------------------------
     1      (1,1,1)              -5422.4221     
     2      (1,1,2)              -5422.4113     
     3      (1,1,3)              -5422.3110     
     4      (1,1,4)              -5421.6120     
     5      (1,1,5)              -5419.1537     
     6      (1,1,6)              -5421.6137     
     7      (1,1,7)              -5422.3143     
     8      (1,1,8)              -5422.4157     
     9      (1,1,9)              -5422.4267     
     10     (1,21,1)             -5422.4255     
     11     (1,21,2)             -5422.4241     
     12     (1,21,3)             -5422.4226     
     13     (1,21,4)             -5422.4214     
     14     (1,21,5)             -5422.4204     
     15     (1,21,6)             -5422.4199     
     16     (1,21,7)             -5422.4202     
     17     (1,21,8)             -5422.4219     
     18     (1,21,9)             -5422.4239     
 -----------------------------------------------




 HEAD WILL BE SAVED ON UNIT 1016 AT END OF TIME STEP    4, STRESS PERIOD   19


  VOLUME BUDGET FOR ENTIRE MODEL AT END OF TIME STEP    4, STRESS PERIOD  19
  ---------------------------------------------------------------------------------------------------

     CUMULATIVE VOLUME      L**3       RATES FOR THIS TIME STEP      L**3/T          PACKAGE NAME    
     ------------------                 ------------------------                     ----------------

           IN:                                      IN:
           ---                                      ---
              STO-SS =    14718287.5593                STO-SS =       31039.3945     STORAGE                          
              STO-SY =      464161.1743                STO-SY =        1059.0858     STORAGE                          
                 WEL =           0.0000                   WEL =           0.0000     WEL-1                            
                RCHA =   130563676.2884                  RCHA =       85500.0000     RCH-1                            
                 CHD =           0.0000                   CHD =           0.0000     CHD-FROM-IBOUND                  

            TOTAL IN =   145746125.0220              TOTAL IN =      117598.4803

          OUT:                                     OUT:
          ----                                     ----
              STO-SS =    91280055.2773                STO-SS =           0.0000     STORAGE                          
              STO-SY =     2781319.9403                STO-SY =           0.0000     STORAGE                          
                 WEL =     3215210.8277                   WEL =       20000.0000     WEL-1                            
                RCHA =           0.0000                  RCHA =           0.0000     RCH-1                            
                 CHD =    48469540.6940                   CHD =       97598.4803     CHD-FROM-IBOUND                  

           TOTAL OUT =   145746126.7393             TOTAL OUT =      117598.4803

            IN - OUT =          -1.7174              IN - OUT =      -5.1065E-05

 PERCENT DISCREPANCY =          -0.00     PERCENT DISCREPANCY =          -0.00




         TIME SUMMARY AT END OF TIME STEP    4 IN STRESS PERIOD   19
                    SECONDS     MINUTES      HOURS       DAYS        YEARS
                    -----------------------------------------------------------
   TIME STEP LENGTH 2.71468E+05  4524.5      75.408      3.1420     8.60231E-03
 STRESS PERIOD TIME 8.43311E+05  14055.      234.25      9.7605     2.67229E-02
         TOTAL TIME 4.55121E+07 7.58535E+05  12642.      526.76      1.4422    


end timestep


start timestep kper="19" kstp="5" mode="normal"

 UBDSV1 SAVING     FLOW-JA-FACE ON UNIT   1015 AT TIME STEP      5, STRESS PERIOD     19
 UBDSV06 SAVING              WEL IN MODEL MUMODEL          PACKAGE MUMODEL         CONNECTED TO MODEL MUMODEL          PACKAGE WEL-1            ON UNIT   1015 AT TIME STEP      5, STRESS PERIOD     19
 UBDSV06 SAVING             RCHA IN MODEL MUMODEL          PACKAGE MUMODEL         CONNECTED TO MODEL MUMODEL          PACKAGE RCH-1            ON UNIT   1015 AT TIME STEP      5, STRESS PERIOD     19

 WEL PACKAGE (WEL-1) FLOW RATES   PERIOD     19   STEP        5
 -----------------------------------------------
   NUMBER   CELLID                    RATE      
 -----------------------------------------------
     1      (1,5,5)              -20000.000     
     2      (1,11,5)              0.0000000     
     3      (1,5,5)               0.0000000     
 -----------------------------------------------




 CHD PACKAGE (CHD-FROM-IBOUND) FLOW RATES   PERIOD     19   STEP        5
 -----------------------------------------------
   NUMBER   CELLID                    RATE      
 -----------------------------------------------
     1      (1,1,1)              -5419.1374     
     2      (1,1,2)              -5419.1254     
     3      (1,1,3)              -5419.0139     
     4      (1,1,4)              -5418.2520     
     5      (1,1,5)              -5415.6299     
     6      (1,1,6)              -5418.2537     
     7      (1,1,7)              -5419.0172     
     8      (1,1,8)              -5419.1296     
     9      (1,1,9)              -5419.1420     
     10     (1,21,1)             -5419.1409     
     11     (1,21,2)             -5419.1396     
     12     (1,21,3)             -5419.1380     
     13     (1,21,4)             -5419.1368     
     14     (1,21,5)             -5419.1359     
     15     (1,21,6)             -5419.1353     
     16     (1,21,7)             -5419.1357     
     17     (1,21,8)             -5419.1374     
     18     (1,21,9)             -5419.1394     
 -----------------------------------------------




 HEAD WILL BE SAVED ON UNIT 1016 AT END OF TIME STEP    5, STRESS PERIOD   19


  VOLUME BUDGET FOR ENTIRE MODEL AT END OF TIME STEP    5, STRESS PERIOD  19
  ---------------------------------------------------------------------------------------------------

     CUMULATIVE VOLUME      L**3       RATES FOR THIS TIME STEP      L**3/T          PACKAGE NAME    
     ------------------                 ------------------------                     ----------------

           IN:                                      IN:
           ---                                      ---
              STO-SS =    14835102.8723                STO-SS =       30982.2813     STORAGE                          
              STO-SY =      468145.1905                STO-SY =        1056.6587     STORAGE                          
                 WEL =           0.0000                   WEL =           0.0000     WEL-1                            
                RCHA =   130886044.7145                  RCHA =       85500.0000     RCH-1                            
                 CHD =           0.0000                   CHD =           0.0000     CHD-FROM-IBOUND                  

            TOTAL IN =   146189292.7773              TOTAL IN =      117538.9400

          OUT:                                     OUT:
          ----                                     ----
              STO-SS =    91280055.2773                STO-SS =           0.0000     STORAGE                          
              STO-SY =     2781319.9403                STO-SY =           0.0000     STORAGE                          
                 WEL =     3290618.6467                   WEL =       20000.0000     WEL-1                            
                RCHA =           0.0000                  RCHA =           0.0000     RCH-1                            
                 CHD =    48837300.6307                   CHD =       97538.9400     CHD-FROM-IBOUND                  

           TOTAL OUT =   146189294.4950             TOTAL OUT =      117538.9400

            IN - OUT =          -1.7177              IN - OUT =      -7.7773E-05

 PERCENT DISCREPANCY =          -0.00     PERCENT DISCREPANCY =          -0.00




         TIME SUMMARY AT END OF TIME STEP    5 IN STRESS PERIOD   19
                    SECONDS     MINUTES      HOURS       DAYS        YEARS
                    -----------------------------------------------------------
   TIME STEP LENGTH 3.25762E+05  5429.4      90.489      3.7704     1.03228E-02
 STRESS PERIOD TIME 1.16907E+06  19485.      324.74      13.531     3.70457E-02
         TOTAL TIME 4.58379E+07 7.63965E+05  12733.      530.53      1.4525    


end timestep


start timestep kper="19" kstp="6" mode="normal"

 UBDSV1 SAVING     FLOW-JA-FACE ON UNIT   1015 AT TIME STEP      6, STRESS PERIOD     19
 UBDSV06 SAVING              WEL IN MODEL MUMODEL          PACKAGE MUMODEL         CONNECTED TO MODEL MUMODEL          PACKAGE WEL-1            ON UNIT   1015 AT TIME STEP      6, STRESS PERIOD     19
 UBDSV06 SAVING             RCHA IN MODEL MUMODEL          PACKAGE MUMODEL         CONNECTED TO MODEL MUMODEL          PACKAGE RCH-1            ON UNIT   1015 AT TIME STEP      6, STRESS PERIOD     19

 WEL PACKAGE (WEL-1) FLOW RATES   PERIOD     19   STEP        6
 -----------------------------------------------
   NUMBER   CELLID                    RATE      
 -----------------------------------------------
     1      (1,5,5)              -20000.000     
     2      (1,11,5)              0.0000000     
     3      (1,5,5)               0.0000000     
 -----------------------------------------------




 CHD PACKAGE (CHD-FROM-IBOUND) FLOW RATES   PERIOD     19   STEP        6
 -----------------------------------------------
   NUMBER   CELLID                    RATE      
 -----------------------------------------------
     1      (1,1,1)              -5415.2513     
     2      (1,1,2)              -5415.2375     
     3      (1,1,3)              -5415.1113     
     4      (1,1,4)              -5414.2685     
     5      (1,1,5)              -5411.4415     
     6      (1,1,6)              -5414.2702     
     7      (1,1,7)              -5415.1145     
     8      (1,1,8)              -5415.2417     
     9      (1,1,9)              -5415.2559     
     10     (1,21,1)             -5415.2550     
     11     (1,21,2)             -5415.2536     
     12     (1,21,3)             -5415.2521     
     13     (1,21,4)             -5415.2509     
     14     (1,21,5)             -5415.2500     
     15     (1,21,6)             -5415.2494     
     16     (1,21,7)             -5415.2498     
     17     (1,21,8)             -5415.2515     
     18     (1,21,9)             -5415.2535     
 -----------------------------------------------




 HEAD WILL BE SAVED ON UNIT 1016 AT END OF TIME STEP    6, STRESS PERIOD   19


  VOLUME BUDGET FOR ENTIRE MODEL AT END OF TIME STEP    6, STRESS PERIOD  19
  ---------------------------------------------------------------------------------------------------

     CUMULATIVE VOLUME      L**3       RATES FOR THIS TIME STEP      L**3/T          PACKAGE NAME    
     ------------------                 ------------------------                     ----------------

           IN:                                      IN:
           ---                                      ---
              STO-SS =    14974975.3622                STO-SS =       30914.6743     STORAGE                          
              STO-SY =      472913.0026                STO-SY =        1053.7838     STORAGE                          
                 WEL =           0.0000                   WEL =           0.0000     WEL-1                            
                RCHA =   131272886.8259                  RCHA =       85500.0000     RCH-1                            
                 CHD =           0.0000                   CHD =           0.0000     CHD-FROM-IBOUND                  

            TOTAL IN =   146720775.1907              TOTAL IN =      117468.4581

          OUT:                                     OUT:
          ----                                     ----
              STO-SS =    91280055.2773                STO-SS =           0.0000     STORAGE                          
              STO-SY =     2781319.9403                STO-SY =           0.0000     STORAGE                          
                 WEL =     3381108.0295                   WEL =       20000.0000     WEL-1                            
                RCHA =           0.0000                  RCHA =           0.0000     RCH-1                            
                 CHD =    49278293.6619                   CHD =       97468.4582     CHD-FROM-IBOUND                  

           TOTAL OUT =   146720776.9089             TOTAL OUT =      117468.4582

            IN - OUT =          -1.7182              IN - OUT =      -1.1586E-04

 PERCENT DISCREPANCY =          -0.00     PERCENT DISCREPANCY =          -0.00




         TIME SUMMARY AT END OF TIME STEP    6 IN STRESS PERIOD   19
                    SECONDS     MINUTES      HOURS       DAYS        YEARS
                    -----------------------------------------------------------
   TIME STEP LENGTH 3.90914E+05  6515.2      108.59      4.5245     1.23873E-02
 STRESS PERIOD TIME 1.55999E+06  26000.      433.33      18.055     4.94330E-02
         TOTAL TIME 4.62288E+07 7.70480E+05  12841.      535.06      1.4649    


end timestep


start timestep kper="19" kstp="7" mode="normal"

 UBDSV1 SAVING     FLOW-JA-FACE ON UNIT   1015 AT TIME STEP      7, STRESS PERIOD     19
 UBDSV06 SAVING              WEL IN MODEL MUMODEL          PACKAGE MUMODEL         CONNECTED TO MODEL MUMODEL          PACKAGE WEL-1            ON UNIT   1015 AT TIME STEP      7, STRESS PERIOD     19
 UBDSV06 SAVING             RCHA IN MODEL MUMODEL          PACKAGE MUMODEL         CONNECTED TO MODEL MUMODEL          PACKAGE RCH-1            ON UNIT   1015 AT TIME STEP      7, STRESS PERIOD     19

 WEL PACKAGE (WEL-1) FLOW RATES   PERIOD     19   STEP        7
 -----------------------------------------------
   NUMBER   CELLID                    RATE      
 -----------------------------------------------
     1      (1,5,5)              -20000.000     
     2      (1,11,5)              0.0000000     
     3      (1,5,5)               0.0000000     
 -----------------------------------------------




 CHD PACKAGE (CHD-FROM-IBOUND) FLOW RATES   PERIOD     19   STEP        7
 -----------------------------------------------
   NUMBER   CELLID                    RATE      
 -----------------------------------------------
     1      (1,1,1)              -5410.6661     
     2      (1,1,2)              -5410.6498     
     3      (1,1,3)              -5410.5039     
     4      (1,1,4)              -5409.5559     
     5      (1,1,5)              -5406.4713     
     6      (1,1,6)              -5409.5576     
     7      (1,1,7)              -5410.5071     
     8      (1,1,8)              -5410.6540     
     9      (1,1,9)              -5410.6706     
     10     (1,21,1)             -5410.6700     
     11     (1,21,2)             -5410.6686     
     12     (1,21,3)             -5410.6671     
     13     (1,21,4)             -5410.6660     
     14     (1,21,5)             -5410.6650     
     15     (1,21,6)             -5410.6645     
     16     (1,21,7)             -5410.6649     
     17     (1,21,8)             -5410.6665     
     18     (1,21,9)             -5410.6685     
 -----------------------------------------------




 HEAD WILL BE SAVED ON UNIT 1016 AT END OF TIME STEP    7, STRESS PERIOD   19


  VOLUME BUDGET FOR ENTIRE MODEL AT END OF TIME STEP    7, STRESS PERIOD  19
  ---------------------------------------------------------------------------------------------------

     CUMULATIVE VOLUME      L**3       RATES FOR THIS TIME STEP      L**3/T          PACKAGE NAME    
     ------------------                 ------------------------                     ----------------

           IN:                                      IN:
           ---                                      ---
              STO-SS =    15142388.9555                STO-SS =       30834.8501     STORAGE                          
              STO-SY =      478615.9368                STO-SY =        1050.3874     STORAGE                          
                 WEL =           0.0000                   WEL =           0.0000     WEL-1                            
                RCHA =   131737097.3596                  RCHA =       85500.0000     RCH-1                            
                 CHD =           0.0000                   CHD =           0.0000     CHD-FROM-IBOUND                  

            TOTAL IN =   147358102.2519              TOTAL IN =      117385.2375

          OUT:                                     OUT:
          ----                                     ----
              STO-SS =    91280055.2773                STO-SS =           0.0000     STORAGE                          
              STO-SY =     2781319.9403                STO-SY =           0.0000     STORAGE                          
                 WEL =     3489695.2888                   WEL =       20000.0000     WEL-1                            
                RCHA =           0.0000                  RCHA =           0.0000     RCH-1                            
                 CHD =    49807033.4639                   CHD =       97385.2375     CHD-FROM-IBOUND                  

           TOTAL OUT =   147358103.9703             TOTAL OUT =      117385.2375

            IN - OUT =          -1.7184              IN - OUT =      -3.1604E-05

 PERCENT DISCREPANCY =          -0.00     PERCENT DISCREPANCY =          -0.00




         TIME SUMMARY AT END OF TIME STEP    7 IN STRESS PERIOD   19
                    SECONDS     MINUTES      HOURS       DAYS        YEARS
                    -----------------------------------------------------------
   TIME STEP LENGTH 4.69097E+05  7818.3      130.30      5.4294     1.48648E-02
 STRESS PERIOD TIME 2.02908E+06  33818.      563.63      23.485     6.42978E-02
         TOTAL TIME 4.66979E+07 7.78298E+05  12972.      540.48      1.4798    


end timestep


start timestep kper="19" kstp="8" mode="normal"

 UBDSV1 SAVING     FLOW-JA-FACE ON UNIT   1015 AT TIME STEP      8, STRESS PERIOD     19
 UBDSV06 SAVING              WEL IN MODEL MUMODEL          PACKAGE MUMODEL         CONNECTED TO MODEL MUMODEL          PACKAGE WEL-1            ON UNIT   1015 AT TIME STEP      8, STRESS PERIOD     19
 UBDSV06 SAVING             RCHA IN MODEL MUMODEL          PACKAGE MUMODEL         CONNECTED TO MODEL MUMODEL          PACKAGE RCH-1            ON UNIT   1015 AT TIME STEP      8, STRESS PERIOD     19

 WEL PACKAGE (WEL-1) FLOW RATES   PERIOD     19   STEP        8
 -----------------------------------------------
   NUMBER   CELLID                    RATE      
 -----------------------------------------------
     1      (1,5,5)              -20000.000     
     2      (1,11,5)              0.0000000     
     3      (1,5,5)               0.0000000     
 -----------------------------------------------




 CHD PACKAGE (CHD-FROM-IBOUND) FLOW RATES   PERIOD     19   STEP        8
 -----------------------------------------------
   NUMBER   CELLID                    RATE      
 -----------------------------------------------
     1      (1,1,1)              -5405.2733     
     2      (1,1,2)              -5405.2535     
     3      (1,1,3)              -5405.0807     
     4      (1,1,4)              -5403.9943     
     5      (1,1,5)              -5400.5838     
     6      (1,1,6)              -5403.9960     
     7      (1,1,7)              -5405.0838     
     8      (1,1,8)              -5405.2577     
     9      (1,1,9)              -5405.2777     
     10     (1,21,1)             -5405.2775     
     11     (1,21,2)             -5405.2762     
     12     (1,21,3)             -5405.2747     
     13     (1,21,4)             -5405.2735     
     14     (1,21,5)             -5405.2726     
     15     (1,21,6)             -5405.2721     
     16     (1,21,7)             -5405.2724     
     17     (1,21,8)             -5405.2741     
     18     (1,21,9)             -5405.2761     
 -----------------------------------------------




 HEAD WILL BE SAVED ON UNIT 1016 AT END OF TIME STEP    8, STRESS PERIOD   19


  VOLUME BUDGET FOR ENTIRE MODEL AT END OF TIME STEP    8, STRESS PERIOD  19
  ---------------------------------------------------------------------------------------------------

     CUMULATIVE VOLUME      L**3       RATES FOR THIS TIME STEP      L**3/T          PACKAGE NAME    
     ------------------                 ------------------------                     ----------------

           IN:                                      IN:
           ---                                      ---
              STO-SS =    15342673.0482                STO-SS =       30740.8828     STORAGE                          
              STO-SY =      485433.3957                STO-SY =        1046.3872     STORAGE                          
                 WEL =           0.0000                   WEL =           0.0000     WEL-1                            
                RCHA =   132294150.0000                  RCHA =       85500.0000     RCH-1                            
                 CHD =           0.0000                   CHD =           0.0000     CHD-FROM-IBOUND                  

            TOTAL IN =   148122256.4439              TOTAL IN =      117287.2700

          OUT:                                     OUT:
          ----                                     ----
              STO-SS =    91280055.2773                STO-SS =           0.0000     STORAGE                          
              STO-SY =     2781319.9403                STO-SY =           0.0000     STORAGE                          
                 WEL =     3620000.0000                   WEL =       20000.0000     WEL-1                            
                RCHA =           0.0000                  RCHA =           0.0000     RCH-1                            
                 CHD =    50440882.9450                   CHD =       97287.2700     CHD-FROM-IBOUND                  

           TOTAL OUT =   148122258.1626             TOTAL OUT =      117287.2700

            IN - OUT =          -1.7187              IN - OUT =      -5.2165E-05

 PERCENT DISCREPANCY =          -0.00     PERCENT DISCREPANCY =          -0.00




         TIME SUMMARY AT END OF TIME STEP    8 IN STRESS PERIOD   19
                    SECONDS     MINUTES      HOURS       DAYS        YEARS
                    -----------------------------------------------------------
   TIME STEP LENGTH 5.62916E+05  9381.9      156.37      6.5152     1.78377E-02
 STRESS PERIOD TIME 2.59200E+06  43200.      720.00      30.000     8.21355E-02
         TOTAL TIME 4.72608E+07 7.87680E+05  13128.      547.00      1.4976    


end timestep


start timestep kper="20" kstp="1" mode="normal"


 OUTPUT CONTROL FOR STRESS PERIOD 20 IS REPEATED USING SETTINGS FROM A PREVIOUS STRESS PERIOD.


 STRESS PERIOD 20 IS TRANSIENT


 REUSING WELS FROM LAST STRESS PERIOD

 REUSING CHDS FROM LAST STRESS PERIOD
 UBDSV1 SAVING     FLOW-JA-FACE ON UNIT   1015 AT TIME STEP      1, STRESS PERIOD     20
 UBDSV06 SAVING              WEL IN MODEL MUMODEL          PACKAGE MUMODEL         CONNECTED TO MODEL MUMODEL          PACKAGE WEL-1            ON UNIT   1015 AT TIME STEP      1, STRESS PERIOD     20
 UBDSV06 SAVING             RCHA IN MODEL MUMODEL          PACKAGE MUMODEL         CONNECTED TO MODEL MUMODEL          PACKAGE RCH-1            ON UNIT   1015 AT TIME STEP      1, STRESS PERIOD     20

 WEL PACKAGE (WEL-1) FLOW RATES   PERIOD     20   STEP        1
 -----------------------------------------------
   NUMBER   CELLID                    RATE      
 -----------------------------------------------
     1      (1,5,5)              -20000.000     
     2      (1,11,5)              0.0000000     
     3      (1,5,5)               0.0000000     
 -----------------------------------------------




 CHD PACKAGE (CHD-FROM-IBOUND) FLOW RATES   PERIOD     20   STEP        1
 -----------------------------------------------
   NUMBER   CELLID                    RATE      
 -----------------------------------------------
     1      (1,1,1)              -5402.1568     
     2      (1,1,2)              -5402.1360     
     3      (1,1,3)              -5401.9551     
     4      (1,1,4)              -5400.8277     
     5      (1,1,5)              -5397.3217     
     6      (1,1,6)              -5400.8294     
     7      (1,1,7)              -5401.9583     
     8      (1,1,8)              -5402.1402     
     9      (1,1,9)              -5402.1612     
     10     (1,21,1)             -5402.1611     
     11     (1,21,2)             -5402.1598     
     12     (1,21,3)             -5402.1583     
     13     (1,21,4)             -5402.1571     
     14     (1,21,5)             -5402.1562     
     15     (1,21,6)             -5402.1557     
     16     (1,21,7)             -5402.1561     
     17     (1,21,8)             -5402.1577     
     18     (1,21,9)             -5402.1597     
 -----------------------------------------------




 HEAD WILL BE SAVED ON UNIT 1016 AT END OF TIME STEP    1, STRESS PERIOD   20


  VOLUME BUDGET FOR ENTIRE MODEL AT END OF TIME STEP    1, STRESS PERIOD  20
  ---------------------------------------------------------------------------------------------------

     CUMULATIVE VOLUME      L**3       RATES FOR THIS TIME STEP      L**3/T          PACKAGE NAME    
     ------------------                 ------------------------                     ----------------

           IN:                                      IN:
           ---                                      ---
              STO-SS =    15540643.4777                STO-SS =      105365.5130     STORAGE                          
              STO-SY =      491662.6654                STO-SY =        3315.3951     STORAGE                          
                 WEL =           0.0000                   WEL =           0.0000     WEL-1                            
                RCHA =   132310214.5274                  RCHA =        8550.0000     RCH-1                            
                 CHD =           0.0000                   CHD =           0.0000     CHD-FROM-IBOUND                  

            TOTAL IN =   148342520.6704              TOTAL IN =      117230.9081

          OUT:                                     OUT:
          ----                                     ----
              STO-SS =    91280055.2773                STO-SS =           0.0000     STORAGE                          
              STO-SY =     2781319.9403                STO-SY =           0.0000     STORAGE                          
                 WEL =     3657577.8419                   WEL =       20000.0000     WEL-1                            
                RCHA =           0.0000                  RCHA =           0.0000     RCH-1                            
                 CHD =    50623569.3297                   CHD =       97230.9081     CHD-FROM-IBOUND                  

           TOTAL OUT =   148342522.3892             TOTAL OUT =      117230.9081

            IN - OUT =          -1.7187              IN - OUT =      -4.9165E-06

 PERCENT DISCREPANCY =          -0.00     PERCENT DISCREPANCY =          -0.00




         TIME SUMMARY AT END OF TIME STEP    1 IN STRESS PERIOD   20
                    SECONDS     MINUTES      HOURS       DAYS        YEARS
                    -----------------------------------------------------------
   TIME STEP LENGTH 1.62336E+05  2705.6      45.093      1.8789     5.14413E-03
 STRESS PERIOD TIME 1.62336E+05  2705.6      45.093      1.8789     5.14413E-03
         TOTAL TIME 4.74231E+07 7.90386E+05  13173.      548.88      1.5027    


end timestep


start timestep kper="20" kstp="2" mode="normal"

 UBDSV1 SAVING     FLOW-JA-FACE ON UNIT   1015 AT TIME STEP      2, STRESS PERIOD     20
 UBDSV06 SAVING              WEL IN MODEL MUMODEL          PACKAGE MUMODEL         CONNECTED TO MODEL MUMODEL          PACKAGE WEL-1            ON UNIT   1015 AT TIME STEP      2, STRESS PERIOD     20
 UBDSV06 SAVING             RCHA IN MODEL MUMODEL          PACKAGE MUMODEL         CONNECTED TO MODEL MUMODEL          PACKAGE RCH-1            ON UNIT   1015 AT TIME STEP      2, STRESS PERIOD     20

 WEL PACKAGE (WEL-1) FLOW RATES   PERIOD     20   STEP        2
 -----------------------------------------------
   NUMBER   CELLID                    RATE      
 -----------------------------------------------
     1      (1,5,5)              -20000.000     
     2      (1,11,5)              0.0000000     
     3      (1,5,5)               0.0000000     
 -----------------------------------------------




 CHD PACKAGE (CHD-FROM-IBOUND) FLOW RATES   PERIOD     20   STEP        2
 -----------------------------------------------
   NUMBER   CELLID                    RATE      
 -----------------------------------------------
     1      (1,1,1)              -5398.4377     
     2      (1,1,2)              -5398.4156     
     3      (1,1,3)              -5398.2246     
     4      (1,1,4)              -5397.0466     
     5      (1,1,5)              -5393.4241     
     6      (1,1,6)              -5397.0483     
     7      (1,1,7)              -5398.2278     
     8      (1,1,8)              -5398.4197     
     9      (1,1,9)              -5398.4421     
     10     (1,21,1)             -5398.4421     
     11     (1,21,2)             -5398.4408     
     12     (1,21,3)             -5398.4393     
     13     (1,21,4)             -5398.4382     
     14     (1,21,5)             -5398.4373     
     15     (1,21,6)             -5398.4368     
     16     (1,21,7)             -5398.4372     
     17     (1,21,8)             -5398.4388     
     18     (1,21,9)             -5398.4407     
 -----------------------------------------------




 HEAD WILL BE SAVED ON UNIT 1016 AT END OF TIME STEP    2, STRESS PERIOD   20


  VOLUME BUDGET FOR ENTIRE MODEL AT END OF TIME STEP    2, STRESS PERIOD  20
  ---------------------------------------------------------------------------------------------------

     CUMULATIVE VOLUME      L**3       RATES FOR THIS TIME STEP      L**3/T          PACKAGE NAME    
     ------------------                 ------------------------                     ----------------

           IN:                                      IN:
           ---                                      ---
              STO-SS =    15778061.9809                STO-SS =      105300.7532     STORAGE                          
              STO-SY =      499132.1286                STO-SY =        3312.8846     STORAGE                          
                 WEL =           0.0000                   WEL =           0.0000     WEL-1                            
                RCHA =   132329491.9603                  RCHA =        8550.0000     RCH-1                            
                 CHD =           0.0000                   CHD =           0.0000     CHD-FROM-IBOUND                  

            TOTAL IN =   148606686.0699              TOTAL IN =      117163.6378

          OUT:                                     OUT:
          ----                                     ----
              STO-SS =    91280055.2773                STO-SS =           0.0000     STORAGE                          
              STO-SY =     2781319.9403                STO-SY =           0.0000     STORAGE                          
                 WEL =     3702671.2522                   WEL =       20000.0000     WEL-1                            
                RCHA =           0.0000                  RCHA =           0.0000     RCH-1                            
                 CHD =    50842641.3188                   CHD =       97163.6378     CHD-FROM-IBOUND                  

           TOTAL OUT =   148606687.7886             TOTAL OUT =      117163.6378

            IN - OUT =          -1.7187              IN - OUT =      -1.4432E-05

 PERCENT DISCREPANCY =          -0.00     PERCENT DISCREPANCY =          -0.00




         TIME SUMMARY AT END OF TIME STEP    2 IN STRESS PERIOD   20
                    SECONDS     MINUTES      HOURS       DAYS        YEARS
                    -----------------------------------------------------------
   TIME STEP LENGTH 1.94804E+05  3246.7      54.112      2.2547     6.17295E-03
 STRESS PERIOD TIME 3.57140E+05  5952.3      99.206      4.1336     1.13171E-02
         TOTAL TIME 4.76179E+07 7.93632E+05  13227.      551.13      1.5089    


end timestep


start timestep kper="20" kstp="3" mode="normal"

 UBDSV1 SAVING     FLOW-JA-FACE ON UNIT   1015 AT TIME STEP      3, STRESS PERIOD     20
 UBDSV06 SAVING              WEL IN MODEL MUMODEL          PACKAGE MUMODEL         CONNECTED TO MODEL MUMODEL          PACKAGE WEL-1            ON UNIT   1015 AT TIME STEP      3, STRESS PERIOD     20
 UBDSV06 SAVING             RCHA IN MODEL MUMODEL          PACKAGE MUMODEL         CONNECTED TO MODEL MUMODEL          PACKAGE RCH-1            ON UNIT   1015 AT TIME STEP      3, STRESS PERIOD     20

 WEL PACKAGE (WEL-1) FLOW RATES   PERIOD     20   STEP        3
 -----------------------------------------------
   NUMBER   CELLID                    RATE      
 -----------------------------------------------
     1      (1,5,5)              -20000.000     
     2      (1,11,5)              0.0000000     
     3      (1,5,5)               0.0000000     
 -----------------------------------------------




 CHD PACKAGE (CHD-FROM-IBOUND) FLOW RATES   PERIOD     20   STEP        3
 -----------------------------------------------
   NUMBER   CELLID                    RATE      
 -----------------------------------------------
     1      (1,1,1)              -5394.0040     
     2      (1,1,2)              -5393.9803     
     3      (1,1,3)              -5393.7767     
     4      (1,1,4)              -5392.5358     
     5      (1,1,5)              -5388.7706     
     6      (1,1,6)              -5392.5374     
     7      (1,1,7)              -5393.7798     
     8      (1,1,8)              -5393.9844     
     9      (1,1,9)              -5394.0085     
     10     (1,21,1)             -5394.0087     
     11     (1,21,2)             -5394.0074     
     12     (1,21,3)             -5394.0059     
     13     (1,21,4)             -5394.0048     
     14     (1,21,5)             -5394.0039     
     15     (1,21,6)             -5394.0034     
     16     (1,21,7)             -5394.0038     
     17     (1,21,8)             -5394.0054     
     18     (1,21,9)             -5394.0073     
 -----------------------------------------------




 HEAD WILL BE SAVED ON UNIT 1016 AT END OF TIME STEP    3, STRESS PERIOD   20


  VOLUME BUDGET FOR ENTIRE MODEL AT END OF TIME STEP    3, STRESS PERIOD  20
  ---------------------------------------------------------------------------------------------------

     CUMULATIVE VOLUME      L**3       RATES FOR THIS TIME STEP      L**3/T          PACKAGE NAME    
     ------------------                 ------------------------                     ----------------

           IN:                                      IN:
           ---                                      ---
              STO-SS =    16062755.2638                STO-SS =      105223.5353     STORAGE                          
              STO-SY =      508087.3895                STO-SY =        3309.8927     STORAGE                          
                 WEL =           0.0000                   WEL =           0.0000     WEL-1                            
                RCHA =   132352624.8798                  RCHA =        8550.0000     RCH-1                            
                 CHD =           0.0000                   CHD =           0.0000     CHD-FROM-IBOUND                  

            TOTAL IN =   148923467.5331              TOTAL IN =      117083.4280

          OUT:                                     OUT:
          ----                                     ----
              STO-SS =    91280055.2773                STO-SS =           0.0000     STORAGE                          
              STO-SY =     2781319.9403                STO-SY =           0.0000     STORAGE                          
                 WEL =     3756783.3445                   WEL =       20000.0000     WEL-1                            
                RCHA =           0.0000                  RCHA =           0.0000     RCH-1                            
                 CHD =    51105310.6898                   CHD =       97083.4280     CHD-FROM-IBOUND                  

           TOTAL OUT =   148923469.2519             TOTAL OUT =      117083.4280

            IN - OUT =          -1.7188              IN - OUT =      -2.3003E-05

 PERCENT DISCREPANCY =          -0.00     PERCENT DISCREPANCY =          -0.00




         TIME SUMMARY AT END OF TIME STEP    3 IN STRESS PERIOD   20
                    SECONDS     MINUTES      HOURS       DAYS        YEARS
                    -----------------------------------------------------------
   TIME STEP LENGTH 2.33764E+05  3896.1      64.935      2.7056     7.40754E-03
 STRESS PERIOD TIME 5.90904E+05  9848.4      164.14      6.8392     1.87246E-02
         TOTAL TIME 4.78517E+07 7.97528E+05  13292.      553.84      1.5163    


end timestep


start timestep kper="20" kstp="4" mode="normal"

 UBDSV1 SAVING     FLOW-JA-FACE ON UNIT   1015 AT TIME STEP      4, STRESS PERIOD     20
 UBDSV06 SAVING              WEL IN MODEL MUMODEL          PACKAGE MUMODEL         CONNECTED TO MODEL MUMODEL          PACKAGE WEL-1            ON UNIT   1015 AT TIME STEP      4, STRESS PERIOD     20
 UBDSV06 SAVING             RCHA IN MODEL MUMODEL          PACKAGE MUMODEL         CONNECTED TO MODEL MUMODEL          PACKAGE RCH-1            ON UNIT   1015 AT TIME STEP      4, STRESS PERIOD     20

 WEL PACKAGE (WEL-1) FLOW RATES   PERIOD     20   STEP        4
 -----------------------------------------------
   NUMBER   CELLID                    RATE      
 -----------------------------------------------
     1      (1,5,5)              -20000.000     
     2      (1,11,5)              0.0000000     
     3      (1,5,5)               0.0000000     
 -----------------------------------------------




 CHD PACKAGE (CHD-FROM-IBOUND) FLOW RATES   PERIOD     20   STEP        4
 -----------------------------------------------
   NUMBER   CELLID                    RATE      
 -----------------------------------------------
     1      (1,1,1)              -5388.7254     
     2      (1,1,2)              -5388.6995     
     3      (1,1,3)              -5388.4797     
     4      (1,1,4)              -5387.1601     
     5      (1,1,5)              -5383.2197     
     6      (1,1,6)              -5387.1618     
     7      (1,1,7)              -5388.4828     
     8      (1,1,8)              -5388.7036     
     9      (1,1,9)              -5388.7298     
     10     (1,21,1)             -5388.7303     
     11     (1,21,2)             -5388.7290     
     12     (1,21,3)             -5388.7275     
     13     (1,21,4)             -5388.7264     
     14     (1,21,5)             -5388.7255     
     15     (1,21,6)             -5388.7250     
     16     (1,21,7)             -5388.7254     
     17     (1,21,8)             -5388.7270     
     18     (1,21,9)             -5388.7289     
 -----------------------------------------------




 HEAD WILL BE SAVED ON UNIT 1016 AT END OF TIME STEP    4, STRESS PERIOD   20


  VOLUME BUDGET FOR ENTIRE MODEL AT END OF TIME STEP    4, STRESS PERIOD  20
  ---------------------------------------------------------------------------------------------------

     CUMULATIVE VOLUME      L**3       RATES FOR THIS TIME STEP      L**3/T          PACKAGE NAME    
     ------------------                 ------------------------                     ----------------

           IN:                                      IN:
           ---                                      ---
              STO-SS =    16404088.6344                STO-SS =      105131.5753     STORAGE                          
              STO-SY =      518822.1414                STO-SY =        3306.3318     STORAGE                          
                 WEL =           0.0000                   WEL =           0.0000     WEL-1                            
                RCHA =   132380384.3831                  RCHA =        8550.0000     RCH-1                            
                 CHD =           0.0000                   CHD =           0.0000     CHD-FROM-IBOUND                  

            TOTAL IN =   149303295.1589              TOTAL IN =      116987.9071

          OUT:                                     OUT:
          ----                                     ----
              STO-SS =    91280055.2773                STO-SS =           0.0000     STORAGE                          
              STO-SY =     2781319.9403                STO-SY =           0.0000     STORAGE                          
                 WEL =     3821717.8553                   WEL =       20000.0000     WEL-1                            
                RCHA =           0.0000                  RCHA =           0.0000     RCH-1                            
                 CHD =    51420203.8049                   CHD =       96987.9071     CHD-FROM-IBOUND                  

           TOTAL OUT =   149303296.8778             TOTAL OUT =      116987.9071

            IN - OUT =          -1.7189              IN - OUT =      -3.0899E-05

 PERCENT DISCREPANCY =          -0.00     PERCENT DISCREPANCY =          -0.00




         TIME SUMMARY AT END OF TIME STEP    4 IN STRESS PERIOD   20
                    SECONDS     MINUTES      HOURS       DAYS        YEARS
                    -----------------------------------------------------------
   TIME STEP LENGTH 2.80517E+05  4675.3      77.921      3.2467     8.88905E-03
 STRESS PERIOD TIME 8.71421E+05  14524.      242.06      10.086     2.76137E-02
         TOTAL TIME 4.81322E+07 8.02204E+05  13370.      557.09      1.5252    


end timestep


start timestep kper="20" kstp="5" mode="normal"

 UBDSV1 SAVING     FLOW-JA-FACE ON UNIT   1015 AT TIME STEP      5, STRESS PERIOD     20
 UBDSV06 SAVING              WEL IN MODEL MUMODEL          PACKAGE MUMODEL         CONNECTED TO MODEL MUMODEL          PACKAGE WEL-1            ON UNIT   1015 AT TIME STEP      5, STRESS PERIOD     20
 UBDSV06 SAVING             RCHA IN MODEL MUMODEL          PACKAGE MUMODEL         CONNECTED TO MODEL MUMODEL          PACKAGE RCH-1            ON UNIT   1015 AT TIME STEP      5, STRESS PERIOD     20

 WEL PACKAGE (WEL-1) FLOW RATES   PERIOD     20   STEP        5
 -----------------------------------------------
   NUMBER   CELLID                    RATE      
 -----------------------------------------------
     1      (1,5,5)              -20000.000     
     2      (1,11,5)              0.0000000     
     3      (1,5,5)               0.0000000     
 -----------------------------------------------




 CHD PACKAGE (CHD-FROM-IBOUND) FLOW RATES   PERIOD     20   STEP        5
 -----------------------------------------------
   NUMBER   CELLID                    RATE      
 -----------------------------------------------
     1      (1,1,1)              -5382.4500     
     2      (1,1,2)              -5382.4213     
     3      (1,1,3)              -5382.1809     
     4      (1,1,4)              -5380.7621     
     5      (1,1,5)              -5376.6057     
     6      (1,1,6)              -5380.7638     
     7      (1,1,7)              -5382.1840     
     8      (1,1,8)              -5382.4254     
     9      (1,1,9)              -5382.4544     
     10     (1,21,1)             -5382.4552     
     11     (1,21,2)             -5382.4540     
     12     (1,21,3)             -5382.4525     
     13     (1,21,4)             -5382.4514     
     14     (1,21,5)             -5382.4505     
     15     (1,21,6)             -5382.4500     
     16     (1,21,7)             -5382.4504     
     17     (1,21,8)             -5382.4520     
     18     (1,21,9)             -5382.4539     
 -----------------------------------------------




 HEAD WILL BE SAVED ON UNIT 1016 AT END OF TIME STEP    5, STRESS PERIOD   20


  VOLUME BUDGET FOR ENTIRE MODEL AT END OF TIME STEP    5, STRESS PERIOD  20
  ---------------------------------------------------------------------------------------------------

     CUMULATIVE VOLUME      L**3       RATES FOR THIS TIME STEP      L**3/T          PACKAGE NAME    
     ------------------                 ------------------------                     ----------------

           IN:                                      IN:
           ---                                      ---
              STO-SS =    16813262.6105                STO-SS =      105022.2168     STORAGE                          
              STO-SY =      531687.3585                STO-SY =        3302.1006     STORAGE                          
                 WEL =           0.0000                   WEL =           0.0000     WEL-1                            
                RCHA =   132413695.7872                  RCHA =        8550.0000     RCH-1                            
                 CHD =           0.0000                   CHD =           0.0000     CHD-FROM-IBOUND                  

            TOTAL IN =   149758645.7562              TOTAL IN =      116874.3173

          OUT:                                     OUT:
          ----                                     ----
              STO-SS =    91280055.2773                STO-SS =           0.0000     STORAGE                          
              STO-SY =     2781319.9403                STO-SY =           0.0000     STORAGE                          
                 WEL =     3899639.2682                   WEL =       20000.0000     WEL-1                            
                RCHA =           0.0000                  RCHA =           0.0000     RCH-1                            
                 CHD =    51797632.9894                   CHD =       96874.3174     CHD-FROM-IBOUND                  

           TOTAL OUT =   149758647.4753             TOTAL OUT =      116874.3174

            IN - OUT =          -1.7191              IN - OUT =      -4.9342E-05

 PERCENT DISCREPANCY =          -0.00     PERCENT DISCREPANCY =          -0.00




         TIME SUMMARY AT END OF TIME STEP    5 IN STRESS PERIOD   20
                    SECONDS     MINUTES      HOURS       DAYS        YEARS
                    -----------------------------------------------------------
   TIME STEP LENGTH 3.36621E+05  5610.3      93.506      3.8961     1.06669E-02
 STRESS PERIOD TIME 1.20804E+06  20134.      335.57      13.982     3.82805E-02
         TOTAL TIME 4.84688E+07 8.07814E+05  13464.      560.98      1.5359    


end timestep


start timestep kper="20" kstp="6" mode="normal"

 UBDSV1 SAVING     FLOW-JA-FACE ON UNIT   1015 AT TIME STEP      6, STRESS PERIOD     20
 UBDSV06 SAVING              WEL IN MODEL MUMODEL          PACKAGE MUMODEL         CONNECTED TO MODEL MUMODEL          PACKAGE WEL-1            ON UNIT   1015 AT TIME STEP      6, STRESS PERIOD     20
 UBDSV06 SAVING             RCHA IN MODEL MUMODEL          PACKAGE MUMODEL         CONNECTED TO MODEL MUMODEL          PACKAGE RCH-1            ON UNIT   1015 AT TIME STEP      6, STRESS PERIOD     20

 WEL PACKAGE (WEL-1) FLOW RATES   PERIOD     20   STEP        6
 -----------------------------------------------
   NUMBER   CELLID                    RATE      
 -----------------------------------------------
     1      (1,5,5)              -20000.000     
     2      (1,11,5)              0.0000000     
     3      (1,5,5)               0.0000000     
 -----------------------------------------------




 CHD PACKAGE (CHD-FROM-IBOUND) FLOW RATES   PERIOD     20   STEP        6
 -----------------------------------------------
   NUMBER   CELLID                    RATE      
 -----------------------------------------------
     1      (1,1,1)              -5375.0031     
     2      (1,1,2)              -5374.9706     
     3      (1,1,3)              -5374.7034     
     4      (1,1,4)              -5373.1587     
     5      (1,1,5)              -5368.7350     
     6      (1,1,6)              -5373.1604     
     7      (1,1,7)              -5374.7064     
     8      (1,1,8)              -5374.9746     
     9      (1,1,9)              -5375.0074     
     10     (1,21,1)             -5375.0087     
     11     (1,21,2)             -5375.0075     
     12     (1,21,3)             -5375.0060     
     13     (1,21,4)             -5375.0049     
     14     (1,21,5)             -5375.0041     
     15     (1,21,6)             -5375.0036     
     16     (1,21,7)             -5375.0040     
     17     (1,21,8)             -5375.0056     
     18     (1,21,9)             -5375.0075     
 -----------------------------------------------




 HEAD WILL BE SAVED ON UNIT 1016 AT END OF TIME STEP    6, STRESS PERIOD   20


  VOLUME BUDGET FOR ENTIRE MODEL AT END OF TIME STEP    6, STRESS PERIOD  20
  ---------------------------------------------------------------------------------------------------

     CUMULATIVE VOLUME      L**3       RATES FOR THIS TIME STEP      L**3/T          PACKAGE NAME    
     ------------------                 ------------------------                     ----------------

           IN:                                      IN:
           ---                                      ---
              STO-SS =    17303664.4002                STO-SS =      104892.3890     STORAGE                          
              STO-SY =      547102.1576                STO-SY =        3297.0824     STORAGE                          
                 WEL =           0.0000                   WEL =           0.0000     WEL-1                            
                RCHA =   132453669.4720                  RCHA =        8550.0000     RCH-1                            
                 CHD =           0.0000                   CHD =           0.0000     CHD-FROM-IBOUND                  

            TOTAL IN =   150304436.0298              TOTAL IN =      116739.4714

          OUT:                                     OUT:
          ----                                     ----
              STO-SS =    91280055.2773                STO-SS =           0.0000     STORAGE                          
              STO-SY =     2781319.9403                STO-SY =           0.0000     STORAGE                          
                 WEL =     3993144.9638                   WEL =       20000.0000     WEL-1                            
                RCHA =           0.0000                  RCHA =           0.0000     RCH-1                            
                 CHD =    52249917.5679                   CHD =       96739.4715     CHD-FROM-IBOUND                  

           TOTAL OUT =   150304437.7493             TOTAL OUT =      116739.4715

            IN - OUT =          -1.7195              IN - OUT =      -7.6167E-05

 PERCENT DISCREPANCY =          -0.00     PERCENT DISCREPANCY =          -0.00




         TIME SUMMARY AT END OF TIME STEP    6 IN STRESS PERIOD   20
                    SECONDS     MINUTES      HOURS       DAYS        YEARS
                    -----------------------------------------------------------
   TIME STEP LENGTH 4.03945E+05  6732.4      112.21      4.6753     1.28002E-02
 STRESS PERIOD TIME 1.61199E+06  26866.      447.77      18.657     5.10808E-02
         TOTAL TIME 4.88728E+07 8.14546E+05  13576.      565.66      1.5487    


end timestep


start timestep kper="20" kstp="7" mode="normal"

 UBDSV1 SAVING     FLOW-JA-FACE ON UNIT   1015 AT TIME STEP      7, STRESS PERIOD     20
 UBDSV06 SAVING              WEL IN MODEL MUMODEL          PACKAGE MUMODEL         CONNECTED TO MODEL MUMODEL          PACKAGE WEL-1            ON UNIT   1015 AT TIME STEP      7, STRESS PERIOD     20
 UBDSV06 SAVING             RCHA IN MODEL MUMODEL          PACKAGE MUMODEL         CONNECTED TO MODEL MUMODEL          PACKAGE RCH-1            ON UNIT   1015 AT TIME STEP      7, STRESS PERIOD     20

 WEL PACKAGE (WEL-1) FLOW RATES   PERIOD     20   STEP        7
 -----------------------------------------------
   NUMBER   CELLID                    RATE      
 -----------------------------------------------
     1      (1,5,5)              -20000.000     
     2      (1,11,5)              0.0000000     
     3      (1,5,5)               0.0000000     
 -----------------------------------------------




 CHD PACKAGE (CHD-FROM-IBOUND) FLOW RATES   PERIOD     20   STEP        7
 -----------------------------------------------
   NUMBER   CELLID                    RATE      
 -----------------------------------------------
     1      (1,1,1)              -5366.1844     
     2      (1,1,2)              -5366.1468     
     3      (1,1,3)              -5365.8443     
     4      (1,1,4)              -5364.1385     
     5      (1,1,5)              -5359.3824     
     6      (1,1,6)              -5364.1401     
     7      (1,1,7)              -5365.8473     
     8      (1,1,8)              -5366.1508     
     9      (1,1,9)              -5366.1887     
     10     (1,21,1)             -5366.1906     
     11     (1,21,2)             -5366.1894     
     12     (1,21,3)             -5366.1880     
     13     (1,21,4)             -5366.1869     
     14     (1,21,5)             -5366.1860     
     15     (1,21,6)             -5366.1855     
     16     (1,21,7)             -5366.1859     
     17     (1,21,8)             -5366.1876     
     18     (1,21,9)             -5366.1894     
 -----------------------------------------------




 HEAD WILL BE SAVED ON UNIT 1016 AT END OF TIME STEP    7, STRESS PERIOD   20


  VOLUME BUDGET FOR ENTIRE MODEL AT END OF TIME STEP    7, STRESS PERIOD  20
  ---------------------------------------------------------------------------------------------------

     CUMULATIVE VOLUME      L**3       RATES FOR THIS TIME STEP      L**3/T          PACKAGE NAME    
     ------------------                 ------------------------                     ----------------

           IN:                                      IN:
           ---                                      ---
              STO-SS =    17891283.5607                STO-SS =      104738.5683     STORAGE                          
              STO-SY =      565566.6016                STO-SY =        3291.1443     STORAGE                          
                 WEL =           0.0000                   WEL =           0.0000     WEL-1                            
                RCHA =   132501637.8938                  RCHA =        8550.0000     RCH-1                            
                 CHD =           0.0000                   CHD =           0.0000     CHD-FROM-IBOUND                  

            TOTAL IN =   150958488.0561              TOTAL IN =      116579.7125

          OUT:                                     OUT:
          ----                                     ----
              STO-SS =    91280055.2773                STO-SS =           0.0000     STORAGE                          
              STO-SY =     2781319.9403                STO-SY =           0.0000     STORAGE                          
                 WEL =     4105351.7984                   WEL =       20000.0000     WEL-1                            
                RCHA =           0.0000                  RCHA =           0.0000     RCH-1                            
                 CHD =    52791762.7598                   CHD =       96579.7126     CHD-FROM-IBOUND                  

           TOTAL OUT =   150958489.7758             TOTAL OUT =      116579.7126

            IN - OUT =          -1.7197              IN - OUT =      -3.8993E-05

 PERCENT DISCREPANCY =          -0.00     PERCENT DISCREPANCY =          -0.00




         TIME SUMMARY AT END OF TIME STEP    7 IN STRESS PERIOD   20
                    SECONDS     MINUTES      HOURS       DAYS        YEARS
                    -----------------------------------------------------------
   TIME STEP LENGTH 4.84734E+05  8078.9      134.65      5.6103     1.53603E-02
 STRESS PERIOD TIME 2.09672E+06  34945.      582.42      24.268     6.64410E-02
         TOTAL TIME 4.93575E+07 8.22625E+05  13710.      571.27      1.5640    


end timestep


start timestep kper="20" kstp="8" mode="normal"

 UBDSV1 SAVING     FLOW-JA-FACE ON UNIT   1015 AT TIME STEP      8, STRESS PERIOD     20
 UBDSV06 SAVING              WEL IN MODEL MUMODEL          PACKAGE MUMODEL         CONNECTED TO MODEL MUMODEL          PACKAGE WEL-1            ON UNIT   1015 AT TIME STEP      8, STRESS PERIOD     20
 UBDSV06 SAVING             RCHA IN MODEL MUMODEL          PACKAGE MUMODEL         CONNECTED TO MODEL MUMODEL          PACKAGE RCH-1            ON UNIT   1015 AT TIME STEP      8, STRESS PERIOD     20

 WEL PACKAGE (WEL-1) FLOW RATES   PERIOD     20   STEP        8
 -----------------------------------------------
   NUMBER   CELLID                    RATE      
 -----------------------------------------------
     1      (1,5,5)              -20000.000     
     2      (1,11,5)              0.0000000     
     3      (1,5,5)               0.0000000     
 -----------------------------------------------




 CHD PACKAGE (CHD-FROM-IBOUND) FLOW RATES   PERIOD     20   STEP        8
 -----------------------------------------------
   NUMBER   CELLID                    RATE      
 -----------------------------------------------
     1      (1,1,1)              -5355.7668     
     2      (1,1,2)              -5355.7223     
     3      (1,1,3)              -5355.3727     
     4      (1,1,4)              -5353.4584     
     5      (1,1,5)              -5348.2875     
     6      (1,1,6)              -5353.4600     
     7      (1,1,7)              -5355.3757     
     8      (1,1,8)              -5355.7263     
     9      (1,1,9)              -5355.7711     
     10     (1,21,1)             -5355.7740     
     11     (1,21,2)             -5355.7728     
     12     (1,21,3)             -5355.7714     
     13     (1,21,4)             -5355.7703     
     14     (1,21,5)             -5355.7694     
     15     (1,21,6)             -5355.7690     
     16     (1,21,7)             -5355.7694     
     17     (1,21,8)             -5355.7710     
     18     (1,21,9)             -5355.7728     
 -----------------------------------------------




 HEAD WILL BE SAVED ON UNIT 1016 AT END OF TIME STEP    8, STRESS PERIOD   20


  VOLUME BUDGET FOR ENTIRE MODEL AT END OF TIME STEP    8, STRESS PERIOD  20
  ---------------------------------------------------------------------------------------------------

     CUMULATIVE VOLUME      L**3       RATES FOR THIS TIME STEP      L**3/T          PACKAGE NAME    
     ------------------                 ------------------------                     ----------------

           IN:                                      IN:
           ---                                      ---
              STO-SS =    18595202.4418                STO-SS =      104556.7446     STORAGE                          
              STO-SY =      587676.7532                STO-SY =        3284.1362     STORAGE                          
                 WEL =           0.0000                   WEL =           0.0000     WEL-1                            
                RCHA =   132559200.0000                  RCHA =        8550.0000     RCH-1                            
                 CHD =           0.0000                   CHD =           0.0000     CHD-FROM-IBOUND                  

            TOTAL IN =   151742079.1950              TOTAL IN =      116390.8808

          OUT:                                     OUT:
          ----                                     ----
              STO-SS =    91280055.2773                STO-SS =           0.0000     STORAGE                          
              STO-SY =     2781319.9403                STO-SY =           0.0000     STORAGE                          
                 WEL =     4240000.0000                   WEL =       20000.0000     WEL-1                            
                RCHA =           0.0000                  RCHA =           0.0000     RCH-1                            
                 CHD =    53440705.6975                   CHD =       96390.8808     CHD-FROM-IBOUND                  

           TOTAL OUT =   151742080.9151             TOTAL OUT =      116390.8808

            IN - OUT =          -1.7201              IN - OUT =      -6.2504E-05

 PERCENT DISCREPANCY =          -0.00     PERCENT DISCREPANCY =          -0.00




         TIME SUMMARY AT END OF TIME STEP    8 IN STRESS PERIOD   20
                    SECONDS     MINUTES      HOURS       DAYS        YEARS
                    -----------------------------------------------------------
   TIME STEP LENGTH 5.81680E+05  9694.7      161.58      6.7324     1.84323E-02
 STRESS PERIOD TIME 2.67840E+06  44640.      744.00      31.000     8.48734E-02
         TOTAL TIME 4.99392E+07 8.32320E+05  13872.      578.00      1.5825    


end timestep


start timestep kper="21" kstp="1" mode="normal"


 OUTPUT CONTROL FOR STRESS PERIOD 21 IS REPEATED USING SETTINGS FROM A PREVIOUS STRESS PERIOD.


 STRESS PERIOD 21 IS TRANSIENT


 REUSING WELS FROM LAST STRESS PERIOD

 REUSING RCHS FROM LAST STRESS PERIOD

 REUSING CHDS FROM LAST STRESS PERIOD
 UBDSV1 SAVING     FLOW-JA-FACE ON UNIT   1015 AT TIME STEP      1, STRESS PERIOD     21
 UBDSV06 SAVING              WEL IN MODEL MUMODEL          PACKAGE MUMODEL         CONNECTED TO MODEL MUMODEL          PACKAGE WEL-1            ON UNIT   1015 AT TIME STEP      1, STRESS PERIOD     21
 UBDSV06 SAVING             RCHA IN MODEL MUMODEL          PACKAGE MUMODEL         CONNECTED TO MODEL MUMODEL          PACKAGE RCH-1            ON UNIT   1015 AT TIME STEP      1, STRESS PERIOD     21

 WEL PACKAGE (WEL-1) FLOW RATES   PERIOD     21   STEP        1
 -----------------------------------------------
   NUMBER   CELLID                    RATE      
 -----------------------------------------------
     1      (1,5,5)              -20000.000     
     2      (1,11,5)              0.0000000     
     3      (1,5,5)               0.0000000     
 -----------------------------------------------




 CHD PACKAGE (CHD-FROM-IBOUND) FLOW RATES   PERIOD     21   STEP        1
 -----------------------------------------------
   NUMBER   CELLID                    RATE      
 -----------------------------------------------
     1      (1,1,1)              -5352.8716     
     2      (1,1,2)              -5352.8251     
     3      (1,1,3)              -5352.4619     
     4      (1,1,4)              -5350.4882     
     5      (1,1,5)              -5345.2000     
     6      (1,1,6)              -5350.4898     
     7      (1,1,7)              -5352.4649     
     8      (1,1,8)              -5352.8290     
     9      (1,1,9)              -5352.8759     
     10     (1,21,1)             -5352.8791     
     11     (1,21,2)             -5352.8779     
     12     (1,21,3)             -5352.8764     
     13     (1,21,4)             -5352.8753     
     14     (1,21,5)             -5352.8745     
     15     (1,21,6)             -5352.8740     
     16     (1,21,7)             -5352.8745     
     17     (1,21,8)             -5352.8761     
     18     (1,21,9)             -5352.8779     
 -----------------------------------------------




 HEAD WILL BE SAVED ON UNIT 1016 AT END OF TIME STEP    1, STRESS PERIOD   21


  VOLUME BUDGET FOR ENTIRE MODEL AT END OF TIME STEP    1, STRESS PERIOD  21
  ---------------------------------------------------------------------------------------------------

     CUMULATIVE VOLUME      L**3       RATES FOR THIS TIME STEP      L**3/T          PACKAGE NAME    
     ------------------                 ------------------------                     ----------------

           IN:                                      IN:
           ---                                      ---
              STO-SS =    18791557.6135                STO-SS =      104505.8268     STORAGE                          
              STO-SY =      593844.3392                STO-SY =        3282.5653     STORAGE                          
                 WEL =           0.0000                   WEL =           0.0000     WEL-1                            
                RCHA =   132575264.5274                  RCHA =        8550.0000     RCH-1                            
                 CHD =           0.0000                   CHD =           0.0000     CHD-FROM-IBOUND                  

            TOTAL IN =   151960666.4802              TOTAL IN =      116338.3921

          OUT:                                     OUT:
          ----                                     ----
              STO-SS =    91280055.2773                STO-SS =           0.0000     STORAGE                          
              STO-SY =     2781319.9403                STO-SY =           0.0000     STORAGE                          
                 WEL =     4277577.8419                   WEL =       20000.0000     WEL-1                            
                RCHA =           0.0000                  RCHA =           0.0000     RCH-1                            
                 CHD =    53621715.1408                   CHD =       96338.3921     CHD-FROM-IBOUND                  

           TOTAL OUT =   151960668.2003             TOTAL OUT =      116338.3921

            IN - OUT =          -1.7201              IN - OUT =      -2.2989E-06

 PERCENT DISCREPANCY =          -0.00     PERCENT DISCREPANCY =          -0.00




         TIME SUMMARY AT END OF TIME STEP    1 IN STRESS PERIOD   21
                    SECONDS     MINUTES      HOURS       DAYS        YEARS
                    -----------------------------------------------------------
   TIME STEP LENGTH 1.62336E+05  2705.6      45.093      1.8789     5.14413E-03
 STRESS PERIOD TIME 1.62336E+05  2705.6      45.093      1.8789     5.14413E-03
         TOTAL TIME 5.01015E+07 8.35026E+05  13917.      579.88      1.5876    


end timestep


start timestep kper="21" kstp="2" mode="normal"

 UBDSV1 SAVING     FLOW-JA-FACE ON UNIT   1015 AT TIME STEP      2, STRESS PERIOD     21
 UBDSV06 SAVING              WEL IN MODEL MUMODEL          PACKAGE MUMODEL         CONNECTED TO MODEL MUMODEL          PACKAGE WEL-1            ON UNIT   1015 AT TIME STEP      2, STRESS PERIOD     21
 UBDSV06 SAVING             RCHA IN MODEL MUMODEL          PACKAGE MUMODEL         CONNECTED TO MODEL MUMODEL          PACKAGE RCH-1            ON UNIT   1015 AT TIME STEP      2, STRESS PERIOD     21

 WEL PACKAGE (WEL-1) FLOW RATES   PERIOD     21   STEP        2
 -----------------------------------------------
   NUMBER   CELLID                    RATE      
 -----------------------------------------------
     1      (1,5,5)              -20000.000     
     2      (1,11,5)              0.0000000     
     3      (1,5,5)               0.0000000     
 -----------------------------------------------




 CHD PACKAGE (CHD-FROM-IBOUND) FLOW RATES   PERIOD     21   STEP        2
 -----------------------------------------------
   NUMBER   CELLID                    RATE      
 -----------------------------------------------
     1      (1,1,1)              -5349.4162     
     2      (1,1,2)              -5349.3671     
     3      (1,1,3)              -5348.9871     
     4      (1,1,4)              -5346.9405     
     5      (1,1,5)              -5341.5101     
     6      (1,1,6)              -5346.9421     
     7      (1,1,7)              -5348.9901     
     8      (1,1,8)              -5349.3710     
     9      (1,1,9)              -5349.4204     
     10     (1,21,1)             -5349.4239     
     11     (1,21,2)             -5349.4228     
     12     (1,21,3)             -5349.4213     
     13     (1,21,4)             -5349.4202     
     14     (1,21,5)             -5349.4194     
     15     (1,21,6)             -5349.4190     
     16     (1,21,7)             -5349.4194     
     17     (1,21,8)             -5349.4210     
     18     (1,21,9)             -5349.4228     
 -----------------------------------------------




 HEAD WILL BE SAVED ON UNIT 1016 AT END OF TIME STEP    2, STRESS PERIOD   21


  VOLUME BUDGET FOR ENTIRE MODEL AT END OF TIME STEP    2, STRESS PERIOD  21
  ---------------------------------------------------------------------------------------------------

     CUMULATIVE VOLUME      L**3       RATES FOR THIS TIME STEP      L**3/T          PACKAGE NAME    
     ------------------                 ------------------------                     ----------------

           IN:                                      IN:
           ---                                      ---
              STO-SS =    19027047.7957                STO-SS =      104445.4969     STORAGE                          
              STO-SY =      601240.1940                STO-SY =        3280.2375     STORAGE                          
                 WEL =           0.0000                   WEL =           0.0000     WEL-1                            
                RCHA =   132594541.9603                  RCHA =        8550.0000     RCH-1                            
                 CHD =           0.0000                   CHD =           0.0000     CHD-FROM-IBOUND                  

            TOTAL IN =   152222829.9500              TOTAL IN =      116275.7344

          OUT:                                     OUT:
          ----                                     ----
              STO-SS =    91280055.2773                STO-SS =           0.0000     STORAGE                          
              STO-SY =     2781319.9403                STO-SY =           0.0000     STORAGE                          
                 WEL =     4322671.2522                   WEL =       20000.0000     WEL-1                            
                RCHA =           0.0000                  RCHA =           0.0000     RCH-1                            
                 CHD =    53838785.2003                   CHD =       96275.7344     CHD-FROM-IBOUND                  

           TOTAL OUT =   152222831.6701             TOTAL OUT =      116275.7344

            IN - OUT =          -1.7201              IN - OUT =      -9.0759E-06

 PERCENT DISCREPANCY =          -0.00     PERCENT DISCREPANCY =          -0.00




         TIME SUMMARY AT END OF TIME STEP    2 IN STRESS PERIOD   21
                    SECONDS     MINUTES      HOURS       DAYS        YEARS
                    -----------------------------------------------------------
   TIME STEP LENGTH 1.94804E+05  3246.7      54.112      2.2547     6.17295E-03
 STRESS PERIOD TIME 3.57140E+05  5952.3      99.206      4.1336     1.13171E-02
         TOTAL TIME 5.02963E+07 8.38272E+05  13971.      582.13      1.5938    


end timestep


start timestep kper="21" kstp="3" mode="normal"

 UBDSV1 SAVING     FLOW-JA-FACE ON UNIT   1015 AT TIME STEP      3, STRESS PERIOD     21
 UBDSV06 SAVING              WEL IN MODEL MUMODEL          PACKAGE MUMODEL         CONNECTED TO MODEL MUMODEL          PACKAGE WEL-1            ON UNIT   1015 AT TIME STEP      3, STRESS PERIOD     21
 UBDSV06 SAVING             RCHA IN MODEL MUMODEL          PACKAGE MUMODEL         CONNECTED TO MODEL MUMODEL          PACKAGE RCH-1            ON UNIT   1015 AT TIME STEP      3, STRESS PERIOD     21

 WEL PACKAGE (WEL-1) FLOW RATES   PERIOD     21   STEP        3
 -----------------------------------------------
   NUMBER   CELLID                    RATE      
 -----------------------------------------------
     1      (1,5,5)              -20000.000     
     2      (1,11,5)              0.0000000     
     3      (1,5,5)               0.0000000     
 -----------------------------------------------




 CHD PACKAGE (CHD-FROM-IBOUND) FLOW RATES   PERIOD     21   STEP        3
 -----------------------------------------------
   NUMBER   CELLID                    RATE      
 -----------------------------------------------
     1      (1,1,1)              -5345.2955     
     2      (1,1,2)              -5345.2433     
     3      (1,1,3)              -5344.8424     
     4      (1,1,4)              -5342.7058     
     5      (1,1,5)              -5337.1022     
     6      (1,1,6)              -5342.7073     
     7      (1,1,7)              -5344.8454     
     8      (1,1,8)              -5345.2472     
     9      (1,1,9)              -5345.2998     
     10     (1,21,1)             -5345.3038     
     11     (1,21,2)             -5345.3026     
     12     (1,21,3)             -5345.3012     
     13     (1,21,4)             -5345.3001     
     14     (1,21,5)             -5345.2992     
     15     (1,21,6)             -5345.2988     
     16     (1,21,7)             -5345.2992     
     17     (1,21,8)             -5345.3008     
     18     (1,21,9)             -5345.3026     
 -----------------------------------------------




 HEAD WILL BE SAVED ON UNIT 1016 AT END OF TIME STEP    3, STRESS PERIOD   21


  VOLUME BUDGET FOR ENTIRE MODEL AT END OF TIME STEP    3, STRESS PERIOD  21
  ---------------------------------------------------------------------------------------------------

     CUMULATIVE VOLUME      L**3       RATES FOR THIS TIME STEP      L**3/T          PACKAGE NAME    
     ------------------                 ------------------------                     ----------------

           IN:                                      IN:
           ---                                      ---
              STO-SS =    19309441.3117                STO-SS =      104373.5342     STORAGE                          
              STO-SY =      610107.7127                STO-SY =        3277.4629     STORAGE                          
                 WEL =           0.0000                   WEL =           0.0000     WEL-1                            
                RCHA =   132617674.8798                  RCHA =        8550.0000     RCH-1                            
                 CHD =           0.0000                   CHD =           0.0000     CHD-FROM-IBOUND                  

            TOTAL IN =   152537223.9042              TOTAL IN =      116200.9971

          OUT:                                     OUT:
          ----                                     ----
              STO-SS =    91280055.2773                STO-SS =           0.0000     STORAGE                          
              STO-SY =     2781319.9403                STO-SY =           0.0000     STORAGE                          
                 WEL =     4376783.3445                   WEL =       20000.0000     WEL-1                            
                RCHA =           0.0000                  RCHA =           0.0000     RCH-1                            
                 CHD =    54099067.0622                   CHD =       96200.9971     CHD-FROM-IBOUND                  

           TOTAL OUT =   152537225.6243             TOTAL OUT =      116200.9971

            IN - OUT =          -1.7202              IN - OUT =      -1.3347E-05

 PERCENT DISCREPANCY =          -0.00     PERCENT DISCREPANCY =          -0.00




         TIME SUMMARY AT END OF TIME STEP    3 IN STRESS PERIOD   21
                    SECONDS     MINUTES      HOURS       DAYS        YEARS
                    -----------------------------------------------------------
   TIME STEP LENGTH 2.33764E+05  3896.1      64.935      2.7056     7.40754E-03
 STRESS PERIOD TIME 5.90904E+05  9848.4      164.14      6.8392     1.87246E-02
         TOTAL TIME 5.05301E+07 8.42168E+05  14036.      584.84      1.6012    


end timestep


start timestep kper="21" kstp="4" mode="normal"

 UBDSV1 SAVING     FLOW-JA-FACE ON UNIT   1015 AT TIME STEP      4, STRESS PERIOD     21
 UBDSV06 SAVING              WEL IN MODEL MUMODEL          PACKAGE MUMODEL         CONNECTED TO MODEL MUMODEL          PACKAGE WEL-1            ON UNIT   1015 AT TIME STEP      4, STRESS PERIOD     21
 UBDSV06 SAVING             RCHA IN MODEL MUMODEL          PACKAGE MUMODEL         CONNECTED TO MODEL MUMODEL          PACKAGE RCH-1            ON UNIT   1015 AT TIME STEP      4, STRESS PERIOD     21

 WEL PACKAGE (WEL-1) FLOW RATES   PERIOD     21   STEP        4
 -----------------------------------------------
   NUMBER   CELLID                    RATE      
 -----------------------------------------------
     1      (1,5,5)              -20000.000     
     2      (1,11,5)              0.0000000     
     3      (1,5,5)               0.0000000     
 -----------------------------------------------




 CHD PACKAGE (CHD-FROM-IBOUND) FLOW RATES   PERIOD     21   STEP        4
 -----------------------------------------------
   NUMBER   CELLID                    RATE      
 -----------------------------------------------
     1      (1,1,1)              -5340.3877     
     2      (1,1,2)              -5340.3314     
     3      (1,1,3)              -5339.9041     
     4      (1,1,4)              -5337.6559     
     5      (1,1,5)              -5331.8409     
     6      (1,1,6)              -5337.6575     
     7      (1,1,7)              -5339.9071     
     8      (1,1,8)              -5340.3353     
     9      (1,1,9)              -5340.3919     
     10     (1,21,1)             -5340.3965     
     11     (1,21,2)             -5340.3953     
     12     (1,21,3)             -5340.3939     
     13     (1,21,4)             -5340.3928     
     14     (1,21,5)             -5340.3920     
     15     (1,21,6)             -5340.3915     
     16     (1,21,7)             -5340.3920     
     17     (1,21,8)             -5340.3936     
     18     (1,21,9)             -5340.3953     
 -----------------------------------------------




 HEAD WILL BE SAVED ON UNIT 1016 AT END OF TIME STEP    4, STRESS PERIOD   21


  VOLUME BUDGET FOR ENTIRE MODEL AT END OF TIME STEP    4, STRESS PERIOD  21
  ---------------------------------------------------------------------------------------------------

     CUMULATIVE VOLUME      L**3       RATES FOR THIS TIME STEP      L**3/T          PACKAGE NAME    
     ------------------                 ------------------------                     ----------------

           IN:                                      IN:
           ---                                      ---
              STO-SS =    19648035.1574                STO-SS =      104287.7944     STORAGE                          
              STO-SY =      620738.0115                STO-SY =        3274.1600     STORAGE                          
                 WEL =           0.0000                   WEL =           0.0000     WEL-1                            
                RCHA =   132645434.3831                  RCHA =        8550.0000     RCH-1                            
                 CHD =           0.0000                   CHD =           0.0000     CHD-FROM-IBOUND                  

            TOTAL IN =   152914207.5520              TOTAL IN =      116111.9544

          OUT:                                     OUT:
          ----                                     ----
              STO-SS =    91280055.2773                STO-SS =           0.0000     STORAGE                          
              STO-SY =     2781319.9403                STO-SY =           0.0000     STORAGE                          
                 WEL =     4441717.8553                   WEL =       20000.0000     WEL-1                            
                RCHA =           0.0000                  RCHA =           0.0000     RCH-1                            
                 CHD =    54411116.1993                   CHD =       96111.9544     CHD-FROM-IBOUND                  

           TOTAL OUT =   152914209.2722             TOTAL OUT =      116111.9544

            IN - OUT =          -1.7202              IN - OUT =      -1.6029E-05

 PERCENT DISCREPANCY =          -0.00     PERCENT DISCREPANCY =          -0.00




         TIME SUMMARY AT END OF TIME STEP    4 IN STRESS PERIOD   21
                    SECONDS     MINUTES      HOURS       DAYS        YEARS
                    -----------------------------------------------------------
   TIME STEP LENGTH 2.80517E+05  4675.3      77.921      3.2467     8.88905E-03
 STRESS PERIOD TIME 8.71421E+05  14524.      242.06      10.086     2.76137E-02
         TOTAL TIME 5.08106E+07 8.46844E+05  14114.      588.09      1.6101    


end timestep


start timestep kper="21" kstp="5" mode="normal"

 UBDSV1 SAVING     FLOW-JA-FACE ON UNIT   1015 AT TIME STEP      5, STRESS PERIOD     21
 UBDSV06 SAVING              WEL IN MODEL MUMODEL          PACKAGE MUMODEL         CONNECTED TO MODEL MUMODEL          PACKAGE WEL-1            ON UNIT   1015 AT TIME STEP      5, STRESS PERIOD     21
 UBDSV06 SAVING             RCHA IN MODEL MUMODEL          PACKAGE MUMODEL         CONNECTED TO MODEL MUMODEL          PACKAGE RCH-1            ON UNIT   1015 AT TIME STEP      5, STRESS PERIOD     21

 WEL PACKAGE (WEL-1) FLOW RATES   PERIOD     21   STEP        5
 -----------------------------------------------
   NUMBER   CELLID                    RATE      
 -----------------------------------------------
     1      (1,5,5)              -20000.000     
     2      (1,11,5)              0.0000000     
     3      (1,5,5)               0.0000000     
 -----------------------------------------------




 CHD PACKAGE (CHD-FROM-IBOUND) FLOW RATES   PERIOD     21   STEP        5
 -----------------------------------------------
   NUMBER   CELLID                    RATE      
 -----------------------------------------------
     1      (1,1,1)              -5334.5505     
     2      (1,1,2)              -5334.4890     
     3      (1,1,3)              -5334.0283     
     4      (1,1,4)              -5331.6409     
     5      (1,1,5)              -5325.5672     
     6      (1,1,6)              -5331.6425     
     7      (1,1,7)              -5334.0313     
     8      (1,1,8)              -5334.4929     
     9      (1,1,9)              -5334.5547     
     10     (1,21,1)             -5334.5601     
     11     (1,21,2)             -5334.5589     
     12     (1,21,3)             -5334.5575     
     13     (1,21,4)             -5334.5564     
     14     (1,21,5)             -5334.5556     
     15     (1,21,6)             -5334.5552     
     16     (1,21,7)             -5334.5556     
     17     (1,21,8)             -5334.5572     
     18     (1,21,9)             -5334.5590     
 -----------------------------------------------




 HEAD WILL BE SAVED ON UNIT 1016 AT END OF TIME STEP    5, STRESS PERIOD   21


  VOLUME BUDGET FOR ENTIRE MODEL AT END OF TIME STEP    5, STRESS PERIOD  21
  ---------------------------------------------------------------------------------------------------

     CUMULATIVE VOLUME      L**3       RATES FOR THIS TIME STEP      L**3/T          PACKAGE NAME    
     ------------------                 ------------------------                     ----------------

           IN:                                      IN:
           ---                                      ---
              STO-SS =    20053950.3109                STO-SS =      104185.7785     STORAGE                          
              STO-SY =      633479.0753                STO-SY =        3270.2343     STORAGE                          
                 WEL =           0.0000                   WEL =           0.0000     WEL-1                            
                RCHA =   132678745.7872                  RCHA =        8550.0000     RCH-1                            
                 CHD =           0.0000                   CHD =           0.0000     CHD-FROM-IBOUND                  

            TOTAL IN =   153366175.1734              TOTAL IN =      116006.0128

          OUT:                                     OUT:
          ----                                     ----
              STO-SS =    91280055.2773                STO-SS =           0.0000     STORAGE                          
              STO-SY =     2781319.9403                STO-SY =           0.0000     STORAGE                          
                 WEL =     4519639.2682                   WEL =       20000.0000     WEL-1                            
                RCHA =           0.0000                  RCHA =           0.0000     RCH-1                            
                 CHD =    54785162.4078                   CHD =       96006.0128     CHD-FROM-IBOUND                  

           TOTAL OUT =   153366176.8937             TOTAL OUT =      116006.0128

            IN - OUT =          -1.7203              IN - OUT =      -2.6130E-05

 PERCENT DISCREPANCY =          -0.00     PERCENT DISCREPANCY =          -0.00




         TIME SUMMARY AT END OF TIME STEP    5 IN STRESS PERIOD   21
                    SECONDS     MINUTES      HOURS       DAYS        YEARS
                    -----------------------------------------------------------
   TIME STEP LENGTH 3.36621E+05  5610.3      93.506      3.8961     1.06669E-02
 STRESS PERIOD TIME 1.20804E+06  20134.      335.57      13.982     3.82805E-02
         TOTAL TIME 5.11472E+07 8.52454E+05  14208.      591.98      1.6208    


end timestep


start timestep kper="21" kstp="6" mode="normal"

 UBDSV1 SAVING     FLOW-JA-FACE ON UNIT   1015 AT TIME STEP      6, STRESS PERIOD     21
 UBDSV06 SAVING              WEL IN MODEL MUMODEL          PACKAGE MUMODEL         CONNECTED TO MODEL MUMODEL          PACKAGE WEL-1            ON UNIT   1015 AT TIME STEP      6, STRESS PERIOD     21
 UBDSV06 SAVING             RCHA IN MODEL MUMODEL          PACKAGE MUMODEL         CONNECTED TO MODEL MUMODEL          PACKAGE RCH-1            ON UNIT   1015 AT TIME STEP      6, STRESS PERIOD     21

 WEL PACKAGE (WEL-1) FLOW RATES   PERIOD     21   STEP        6
 -----------------------------------------------
   NUMBER   CELLID                    RATE      
 -----------------------------------------------
     1      (1,5,5)              -20000.000     
     2      (1,11,5)              0.0000000     
     3      (1,5,5)               0.0000000     
 -----------------------------------------------




 CHD PACKAGE (CHD-FROM-IBOUND) FLOW RATES   PERIOD     21   STEP        6
 -----------------------------------------------
   NUMBER   CELLID                    RATE      
 -----------------------------------------------
     1      (1,1,1)              -5327.6199     
     2      (1,1,2)              -5327.5516     
     3      (1,1,3)              -5327.0481     
     4      (1,1,4)              -5324.4861     
     5      (1,1,5)              -5318.0947     
     6      (1,1,6)              -5324.4877     
     7      (1,1,7)              -5327.0511     
     8      (1,1,8)              -5327.5554     
     9      (1,1,9)              -5327.6241     
     10     (1,21,1)             -5327.6304     
     11     (1,21,2)             -5327.6293     
     12     (1,21,3)             -5327.6279     
     13     (1,21,4)             -5327.6268     
     14     (1,21,5)             -5327.6260     
     15     (1,21,6)             -5327.6256     
     16     (1,21,7)             -5327.6260     
     17     (1,21,8)             -5327.6276     
     18     (1,21,9)             -5327.6294     
 -----------------------------------------------




 HEAD WILL BE SAVED ON UNIT 1016 AT END OF TIME STEP    6, STRESS PERIOD   21


  VOLUME BUDGET FOR ENTIRE MODEL AT END OF TIME STEP    6, STRESS PERIOD  21
  ---------------------------------------------------------------------------------------------------

     CUMULATIVE VOLUME      L**3       RATES FOR THIS TIME STEP      L**3/T          PACKAGE NAME    
     ------------------                 ------------------------                     ----------------

           IN:                                      IN:
           ---                                      ---
              STO-SS =    20540481.9076                STO-SS =      104064.5907     STORAGE                          
              STO-SY =      648746.5776                STO-SY =        3265.5770     STORAGE                          
                 WEL =           0.0000                   WEL =           0.0000     WEL-1                            
                RCHA =   132718719.4720                  RCHA =        8550.0000     RCH-1                            
                 CHD =           0.0000                   CHD =           0.0000     CHD-FROM-IBOUND                  

            TOTAL IN =   153907947.9572              TOTAL IN =      115880.1677

          OUT:                                     OUT:
          ----                                     ----
              STO-SS =    91280055.2773                STO-SS =           0.0000     STORAGE                          
              STO-SY =     2781319.9403                STO-SY =           0.0000     STORAGE                          
                 WEL =     4613144.9638                   WEL =       20000.0000     WEL-1                            
                RCHA =           0.0000                  RCHA =           0.0000     RCH-1                            
                 CHD =    55233429.4964                   CHD =       95880.1677     CHD-FROM-IBOUND                  

           TOTAL OUT =   153907949.6777             TOTAL OUT =      115880.1677

            IN - OUT =          -1.7205              IN - OUT =      -4.3116E-05

 PERCENT DISCREPANCY =          -0.00     PERCENT DISCREPANCY =          -0.00




         TIME SUMMARY AT END OF TIME STEP    6 IN STRESS PERIOD   21
                    SECONDS     MINUTES      HOURS       DAYS        YEARS
                    -----------------------------------------------------------
   TIME STEP LENGTH 4.03945E+05  6732.4      112.21      4.6753     1.28002E-02
 STRESS PERIOD TIME 1.61199E+06  26866.      447.77      18.657     5.10808E-02
         TOTAL TIME 5.15512E+07 8.59186E+05  14320.      596.66      1.6336    


end timestep


start timestep kper="21" kstp="7" mode="normal"

 UBDSV1 SAVING     FLOW-JA-FACE ON UNIT   1015 AT TIME STEP      7, STRESS PERIOD     21
 UBDSV06 SAVING              WEL IN MODEL MUMODEL          PACKAGE MUMODEL         CONNECTED TO MODEL MUMODEL          PACKAGE WEL-1            ON UNIT   1015 AT TIME STEP      7, STRESS PERIOD     21
 UBDSV06 SAVING             RCHA IN MODEL MUMODEL          PACKAGE MUMODEL         CONNECTED TO MODEL MUMODEL          PACKAGE RCH-1            ON UNIT   1015 AT TIME STEP      7, STRESS PERIOD     21

 WEL PACKAGE (WEL-1) FLOW RATES   PERIOD     21   STEP        7
 -----------------------------------------------
   NUMBER   CELLID                    RATE      
 -----------------------------------------------
     1      (1,5,5)              -20000.000     
     2      (1,11,5)              0.0000000     
     3      (1,5,5)               0.0000000     
 -----------------------------------------------




 CHD PACKAGE (CHD-FROM-IBOUND) FLOW RATES   PERIOD     21   STEP        7
 -----------------------------------------------
   NUMBER   CELLID                    RATE      
 -----------------------------------------------
     1      (1,1,1)              -5319.4074     
     2      (1,1,2)              -5319.3300     
     3      (1,1,3)              -5318.7713     
     4      (1,1,4)              -5315.9885     
     5      (1,1,5)              -5309.2061     
     6      (1,1,6)              -5315.9900     
     7      (1,1,7)              -5318.7742     
     8      (1,1,8)              -5319.3338     
     9      (1,1,9)              -5319.4115     
     10     (1,21,1)             -5319.4192     
     11     (1,21,2)             -5319.4181     
     12     (1,21,3)             -5319.4167     
     13     (1,21,4)             -5319.4157     
     14     (1,21,5)             -5319.4149     
     15     (1,21,6)             -5319.4145     
     16     (1,21,7)             -5319.4149     
     17     (1,21,8)             -5319.4165     
     18     (1,21,9)             -5319.4182     
 -----------------------------------------------




 HEAD WILL BE SAVED ON UNIT 1016 AT END OF TIME STEP    7, STRESS PERIOD   21


  VOLUME BUDGET FOR ENTIRE MODEL AT END OF TIME STEP    7, STRESS PERIOD  21
  ---------------------------------------------------------------------------------------------------

     CUMULATIVE VOLUME      L**3       RATES FOR THIS TIME STEP      L**3/T          PACKAGE NAME    
     ------------------                 ------------------------                     ----------------

           IN:                                      IN:
           ---                                      ---
              STO-SS =    21123513.6576                STO-SS =      103920.8978     STORAGE                          
              STO-SY =      667036.6488                STO-SY =        3260.0637     STORAGE                          
                 WEL =           0.0000                   WEL =           0.0000     WEL-1                            
                RCHA =   132766687.8938                  RCHA =        8550.0000     RCH-1                            
                 CHD =           0.0000                   CHD =           0.0000     CHD-FROM-IBOUND                  

            TOTAL IN =   154557238.2003              TOTAL IN =      115730.9615

          OUT:                                     OUT:
          ----                                     ----
              STO-SS =    91280055.2773                STO-SS =           0.0000     STORAGE                          
              STO-SY =     2781319.9403                STO-SY =           0.0000     STORAGE                          
                 WEL =     4725351.7984                   WEL =       20000.0000     WEL-1                            
                RCHA =           0.0000                  RCHA =           0.0000     RCH-1                            
                 CHD =    55770512.9050                   CHD =       95730.9615     CHD-FROM-IBOUND                  

           TOTAL OUT =   154557239.9210             TOTAL OUT =      115730.9615

            IN - OUT =          -1.7207              IN - OUT =      -3.3978E-05

 PERCENT DISCREPANCY =          -0.00     PERCENT DISCREPANCY =          -0.00




         TIME SUMMARY AT END OF TIME STEP    7 IN STRESS PERIOD   21
                    SECONDS     MINUTES      HOURS       DAYS        YEARS
                    -----------------------------------------------------------
   TIME STEP LENGTH 4.84734E+05  8078.9      134.65      5.6103     1.53603E-02
 STRESS PERIOD TIME 2.09672E+06  34945.      582.42      24.268     6.64410E-02
         TOTAL TIME 5.20359E+07 8.67265E+05  14454.      602.27      1.6489    


end timestep


start timestep kper="21" kstp="8" mode="normal"

 UBDSV1 SAVING     FLOW-JA-FACE ON UNIT   1015 AT TIME STEP      8, STRESS PERIOD     21
 UBDSV06 SAVING              WEL IN MODEL MUMODEL          PACKAGE MUMODEL         CONNECTED TO MODEL MUMODEL          PACKAGE WEL-1            ON UNIT   1015 AT TIME STEP      8, STRESS PERIOD     21
 UBDSV06 SAVING             RCHA IN MODEL MUMODEL          PACKAGE MUMODEL         CONNECTED TO MODEL MUMODEL          PACKAGE RCH-1            ON UNIT   1015 AT TIME STEP      8, STRESS PERIOD     21

 WEL PACKAGE (WEL-1) FLOW RATES   PERIOD     21   STEP        8
 -----------------------------------------------
   NUMBER   CELLID                    RATE      
 -----------------------------------------------
     1      (1,5,5)              -20000.000     
     2      (1,11,5)              0.0000000     
     3      (1,5,5)               0.0000000     
 -----------------------------------------------




 CHD PACKAGE (CHD-FROM-IBOUND) FLOW RATES   PERIOD     21   STEP        8
 -----------------------------------------------
   NUMBER   CELLID                    RATE      
 -----------------------------------------------
     1      (1,1,1)              -5309.6986     
     2      (1,1,2)              -5309.6091     
     3      (1,1,3)              -5308.9779     
     4      (1,1,4)              -5305.9140     
     5      (1,1,5)              -5298.6487     
     6      (1,1,6)              -5305.9155     
     7      (1,1,7)              -5308.9808     
     8      (1,1,8)              -5309.6129     
     9      (1,1,9)              -5309.7026     
     10     (1,21,1)             -5309.7123     
     11     (1,21,2)             -5309.7112     
     12     (1,21,3)             -5309.7099     
     13     (1,21,4)             -5309.7088     
     14     (1,21,5)             -5309.7080     
     15     (1,21,6)             -5309.7076     
     16     (1,21,7)             -5309.7081     
     17     (1,21,8)             -5309.7096     
     18     (1,21,9)             -5309.7113     
 -----------------------------------------------




 HEAD WILL BE SAVED ON UNIT 1016 AT END OF TIME STEP    8, STRESS PERIOD   21


  VOLUME BUDGET FOR ENTIRE MODEL AT END OF TIME STEP    8, STRESS PERIOD  21
  ---------------------------------------------------------------------------------------------------

     CUMULATIVE VOLUME      L**3       RATES FOR THIS TIME STEP      L**3/T          PACKAGE NAME    
     ------------------                 ------------------------                     ----------------

           IN:                                      IN:
           ---                                      ---
              STO-SS =    21822007.2167                STO-SS =      103750.8932     STORAGE                          
              STO-SY =      688940.9062                STO-SY =        3253.5536     STORAGE                          
                 WEL =           0.0000                   WEL =           0.0000     WEL-1                            
                RCHA =   132824250.0000                  RCHA =        8550.0000     RCH-1                            
                 CHD =           0.0000                   CHD =           0.0000     CHD-FROM-IBOUND                  

            TOTAL IN =   155335198.1229              TOTAL IN =      115554.4468

          OUT:                                     OUT:
          ----                                     ----
              STO-SS =    91280055.2773                STO-SS =           0.0000     STORAGE                          
              STO-SY =     2781319.9403                STO-SY =           0.0000     STORAGE                          
                 WEL =     4860000.0000                   WEL =       20000.0000     WEL-1                            
                RCHA =           0.0000                  RCHA =           0.0000     RCH-1                            
                 CHD =    56413824.6263                   CHD =       95554.4469     CHD-FROM-IBOUND                  

           TOTAL OUT =   155335199.8439             TOTAL OUT =      115554.4469

            IN - OUT =          -1.7211              IN - OUT =      -5.4623E-05

 PERCENT DISCREPANCY =          -0.00     PERCENT DISCREPANCY =          -0.00




         TIME SUMMARY AT END OF TIME STEP    8 IN STRESS PERIOD   21
                    SECONDS     MINUTES      HOURS       DAYS        YEARS
                    -----------------------------------------------------------
   TIME STEP LENGTH 5.81680E+05  9694.7      161.58      6.7324     1.84323E-02
 STRESS PERIOD TIME 2.67840E+06  44640.      744.00      31.000     8.48734E-02
         TOTAL TIME 5.26176E+07 8.76960E+05  14616.      609.00      1.6674    


end timestep


start timestep kper="22" kstp="1" mode="normal"


 OUTPUT CONTROL FOR STRESS PERIOD 22 IS REPEATED USING SETTINGS FROM A PREVIOUS STRESS PERIOD.


 STRESS PERIOD 22 IS TRANSIENT


 REUSING WELS FROM LAST STRESS PERIOD

 REUSING RCHS FROM LAST STRESS PERIOD

 REUSING CHDS FROM LAST STRESS PERIOD
 UBDSV1 SAVING     FLOW-JA-FACE ON UNIT   1015 AT TIME STEP      1, STRESS PERIOD     22
 UBDSV06 SAVING              WEL IN MODEL MUMODEL          PACKAGE MUMODEL         CONNECTED TO MODEL MUMODEL          PACKAGE WEL-1            ON UNIT   1015 AT TIME STEP      1, STRESS PERIOD     22
 UBDSV06 SAVING             RCHA IN MODEL MUMODEL          PACKAGE MUMODEL         CONNECTED TO MODEL MUMODEL          PACKAGE RCH-1            ON UNIT   1015 AT TIME STEP      1, STRESS PERIOD     22

 WEL PACKAGE (WEL-1) FLOW RATES   PERIOD     22   STEP        1
 -----------------------------------------------
   NUMBER   CELLID                    RATE      
 -----------------------------------------------
     1      (1,5,5)              -20000.000     
     2      (1,11,5)              0.0000000     
     3      (1,5,5)               0.0000000     
 -----------------------------------------------




 CHD PACKAGE (CHD-FROM-IBOUND) FLOW RATES   PERIOD     22   STEP        1
 -----------------------------------------------
   NUMBER   CELLID                    RATE      
 -----------------------------------------------
     1      (1,1,1)              -5307.0864     
     2      (1,1,2)              -5306.9936     
     3      (1,1,3)              -5306.3423     
     4      (1,1,4)              -5303.2012     
     5      (1,1,5)              -5295.8043     
     6      (1,1,6)              -5303.2028     
     7      (1,1,7)              -5306.3452     
     8      (1,1,8)              -5306.9973     
     9      (1,1,9)              -5307.0905     
     10     (1,21,1)             -5307.1007     
     11     (1,21,2)             -5307.0996     
     12     (1,21,3)             -5307.0982     
     13     (1,21,4)             -5307.0972     
     14     (1,21,5)             -5307.0964     
     15     (1,21,6)             -5307.0960     
     16     (1,21,7)             -5307.0965     
     17     (1,21,8)             -5307.0980     
     18     (1,21,9)             -5307.0997     
 -----------------------------------------------




 HEAD WILL BE SAVED ON UNIT 1016 AT END OF TIME STEP    1, STRESS PERIOD   22


  VOLUME BUDGET FOR ENTIRE MODEL AT END OF TIME STEP    1, STRESS PERIOD  22
  ---------------------------------------------------------------------------------------------------

     CUMULATIVE VOLUME      L**3       RATES FOR THIS TIME STEP      L**3/T          PACKAGE NAME    
     ------------------                 ------------------------                     ----------------

           IN:                                      IN:
           ---                                      ---
              STO-SS =    22010571.8465                STO-SS =      103704.7939     STORAGE                          
              STO-SY =      694854.2376                STO-SY =        3252.1519     STORAGE                          
                 WEL =           0.0000                   WEL =           0.0000     WEL-1                            
                RCHA =   132839796.3168                  RCHA =        8550.0000     RCH-1                            
                 CHD =           0.0000                   CHD =           0.0000     CHD-FROM-IBOUND                  

            TOTAL IN =   155545222.4010              TOTAL IN =      115506.9458

          OUT:                                     OUT:
          ----                                     ----
              STO-SS =    91280055.2773                STO-SS =           0.0000     STORAGE                          
              STO-SY =     2781319.9403                STO-SY =           0.0000     STORAGE                          
                 WEL =     4896365.6534                   WEL =       20000.0000     WEL-1                            
                RCHA =           0.0000                  RCHA =           0.0000     RCH-1                            
                 CHD =    56587483.2510                   CHD =       95506.9458     CHD-FROM-IBOUND                  

           TOTAL OUT =   155545224.1220             TOTAL OUT =      115506.9458

            IN - OUT =          -1.7211              IN - OUT =       3.1658E-07

 PERCENT DISCREPANCY =          -0.00     PERCENT DISCREPANCY =           0.00




         TIME SUMMARY AT END OF TIME STEP    1 IN STRESS PERIOD   22
                    SECONDS     MINUTES      HOURS       DAYS        YEARS
                    -----------------------------------------------------------
   TIME STEP LENGTH 1.57100E+05  2618.3      43.639      1.8183     4.97819E-03
 STRESS PERIOD TIME 1.57100E+05  2618.3      43.639      1.8183     4.97819E-03
         TOTAL TIME 5.27747E+07 8.79578E+05  14660.      610.82      1.6723    


end timestep


start timestep kper="22" kstp="2" mode="normal"

 UBDSV1 SAVING     FLOW-JA-FACE ON UNIT   1015 AT TIME STEP      2, STRESS PERIOD     22
 UBDSV06 SAVING              WEL IN MODEL MUMODEL          PACKAGE MUMODEL         CONNECTED TO MODEL MUMODEL          PACKAGE WEL-1            ON UNIT   1015 AT TIME STEP      2, STRESS PERIOD     22
 UBDSV06 SAVING             RCHA IN MODEL MUMODEL          PACKAGE MUMODEL         CONNECTED TO MODEL MUMODEL          PACKAGE RCH-1            ON UNIT   1015 AT TIME STEP      2, STRESS PERIOD     22

 WEL PACKAGE (WEL-1) FLOW RATES   PERIOD     22   STEP        2
 -----------------------------------------------
   NUMBER   CELLID                    RATE      
 -----------------------------------------------
     1      (1,5,5)              -20000.000     
     2      (1,11,5)              0.0000000     
     3      (1,5,5)               0.0000000     
 -----------------------------------------------




 CHD PACKAGE (CHD-FROM-IBOUND) FLOW RATES   PERIOD     22   STEP        2
 -----------------------------------------------
   NUMBER   CELLID                    RATE      
 -----------------------------------------------
     1      (1,1,1)              -5303.9675     
     2      (1,1,2)              -5303.8705     
     3      (1,1,3)              -5303.1946     
     4      (1,1,4)              -5299.9592     
     5      (1,1,5)              -5292.4032     
     6      (1,1,6)              -5299.9608     
     7      (1,1,7)              -5303.1975     
     8      (1,1,8)              -5303.8742     
     9      (1,1,9)              -5303.9716     
     10     (1,21,1)             -5303.9825     
     11     (1,21,2)             -5303.9814     
     12     (1,21,3)             -5303.9800     
     13     (1,21,4)             -5303.9790     
     14     (1,21,5)             -5303.9782     
     15     (1,21,6)             -5303.9778     
     16     (1,21,7)             -5303.9783     
     17     (1,21,8)             -5303.9798     
     18     (1,21,9)             -5303.9815     
 -----------------------------------------------




 HEAD WILL BE SAVED ON UNIT 1016 AT END OF TIME STEP    2, STRESS PERIOD   22


  VOLUME BUDGET FOR ENTIRE MODEL AT END OF TIME STEP    2, STRESS PERIOD  22
  ---------------------------------------------------------------------------------------------------

     CUMULATIVE VOLUME      L**3       RATES FOR THIS TIME STEP      L**3/T          PACKAGE NAME    
     ------------------                 ------------------------                     ----------------

           IN:                                      IN:
           ---                                      ---
              STO-SS =    22236730.1925                STO-SS =      103650.1591     STORAGE                          
              STO-SY =      701945.6678                STO-SY =        3250.0586     STORAGE                          
                 WEL =           0.0000                   WEL =           0.0000     WEL-1                            
                RCHA =   132858451.8971                  RCHA =        8550.0000     RCH-1                            
                 CHD =           0.0000                   CHD =           0.0000     CHD-FROM-IBOUND                  

            TOTAL IN =   155797127.7574              TOTAL IN =      115450.2177

          OUT:                                     OUT:
          ----                                     ----
              STO-SS =    91280055.2773                STO-SS =           0.0000     STORAGE                          
              STO-SY =     2781319.9403                STO-SY =           0.0000     STORAGE                          
                 WEL =     4940004.4376                   WEL =       20000.0000     WEL-1                            
                RCHA =           0.0000                  RCHA =           0.0000     RCH-1                            
                 CHD =    56795749.8233                   CHD =       95450.2177     CHD-FROM-IBOUND                  

           TOTAL OUT =   155797129.4785             TOTAL OUT =      115450.2177

            IN - OUT =          -1.7211              IN - OUT =      -2.0052E-06

 PERCENT DISCREPANCY =          -0.00     PERCENT DISCREPANCY =          -0.00




         TIME SUMMARY AT END OF TIME STEP    2 IN STRESS PERIOD   22
                    SECONDS     MINUTES      HOURS       DAYS        YEARS
                    -----------------------------------------------------------
   TIME STEP LENGTH 1.88520E+05  3142.0      52.367      2.1819     5.97382E-03
 STRESS PERIOD TIME 3.45619E+05  5760.3      96.005      4.0002     1.09520E-02
         TOTAL TIME 5.29632E+07 8.82720E+05  14712.      613.00      1.6783    


end timestep


start timestep kper="22" kstp="3" mode="normal"

 UBDSV1 SAVING     FLOW-JA-FACE ON UNIT   1015 AT TIME STEP      3, STRESS PERIOD     22
 UBDSV06 SAVING              WEL IN MODEL MUMODEL          PACKAGE MUMODEL         CONNECTED TO MODEL MUMODEL          PACKAGE WEL-1            ON UNIT   1015 AT TIME STEP      3, STRESS PERIOD     22
 UBDSV06 SAVING             RCHA IN MODEL MUMODEL          PACKAGE MUMODEL         CONNECTED TO MODEL MUMODEL          PACKAGE RCH-1            ON UNIT   1015 AT TIME STEP      3, STRESS PERIOD     22

 WEL PACKAGE (WEL-1) FLOW RATES   PERIOD     22   STEP        3
 -----------------------------------------------
   NUMBER   CELLID                    RATE      
 -----------------------------------------------
     1      (1,5,5)              -20000.000     
     2      (1,11,5)              0.0000000     
     3      (1,5,5)               0.0000000     
 -----------------------------------------------




 CHD PACKAGE (CHD-FROM-IBOUND) FLOW RATES   PERIOD     22   STEP        3
 -----------------------------------------------
   NUMBER   CELLID                    RATE      
 -----------------------------------------------
     1      (1,1,1)              -5300.2465     
     2      (1,1,2)              -5300.1442     
     3      (1,1,3)              -5299.4378     
     4      (1,1,4)              -5296.0868     
     5      (1,1,5)              -5288.3378     
     6      (1,1,6)              -5296.0883     
     7      (1,1,7)              -5299.4406     
     8      (1,1,8)              -5300.1479     
     9      (1,1,9)              -5300.2505     
     10     (1,21,1)             -5300.2622     
     11     (1,21,2)             -5300.2611     
     12     (1,21,3)             -5300.2598     
     13     (1,21,4)             -5300.2588     
     14     (1,21,5)             -5300.2580     
     15     (1,21,6)             -5300.2576     
     16     (1,21,7)             -5300.2581     
     17     (1,21,8)             -5300.2596     
     18     (1,21,9)             -5300.2613     
 -----------------------------------------------




 HEAD WILL BE SAVED ON UNIT 1016 AT END OF TIME STEP    3, STRESS PERIOD   22


  VOLUME BUDGET FOR ENTIRE MODEL AT END OF TIME STEP    3, STRESS PERIOD  22
  ---------------------------------------------------------------------------------------------------

     CUMULATIVE VOLUME      L**3       RATES FOR THIS TIME STEP      L**3/T          PACKAGE NAME    
     ------------------                 ------------------------                     ----------------

           IN:                                      IN:
           ---                                      ---
              STO-SS =    22507949.4807                STO-SS =      103584.9545     STORAGE                          
              STO-SY =      710448.8483                STO-SY =        3247.5624     STORAGE                          
                 WEL =           0.0000                   WEL =           0.0000     WEL-1                            
                RCHA =   132880838.5933                  RCHA =        8550.0000     RCH-1                            
                 CHD =           0.0000                   CHD =           0.0000     CHD-FROM-IBOUND                  

            TOTAL IN =   156099236.9223              TOTAL IN =      115382.5169

          OUT:                                     OUT:
          ----                                     ----
              STO-SS =    91280055.2773                STO-SS =           0.0000     STORAGE                          
              STO-SY =     2781319.9403                STO-SY =           0.0000     STORAGE                          
                 WEL =     4992370.9785                   WEL =       20000.0000     WEL-1                            
                RCHA =           0.0000                  RCHA =           0.0000     RCH-1                            
                 CHD =    57045492.4472                   CHD =       95382.5169     CHD-FROM-IBOUND                  

           TOTAL OUT =   156099238.6434             TOTAL OUT =      115382.5169

            IN - OUT =          -1.7211              IN - OUT =      -4.0849E-06

 PERCENT DISCREPANCY =          -0.00     PERCENT DISCREPANCY =          -0.00




         TIME SUMMARY AT END OF TIME STEP    3 IN STRESS PERIOD   22
                    SECONDS     MINUTES      HOURS       DAYS        YEARS
                    -----------------------------------------------------------
   TIME STEP LENGTH 2.26223E+05  3770.4      62.840      2.6183     7.16859E-03
 STRESS PERIOD TIME 5.71843E+05  9530.7      158.85      6.6185     1.81206E-02
         TOTAL TIME 5.31894E+07 8.86491E+05  14775.      615.62      1.6855    


end timestep


start timestep kper="22" kstp="4" mode="normal"

 UBDSV1 SAVING     FLOW-JA-FACE ON UNIT   1015 AT TIME STEP      4, STRESS PERIOD     22
 UBDSV06 SAVING              WEL IN MODEL MUMODEL          PACKAGE MUMODEL         CONNECTED TO MODEL MUMODEL          PACKAGE WEL-1            ON UNIT   1015 AT TIME STEP      4, STRESS PERIOD     22
 UBDSV06 SAVING             RCHA IN MODEL MUMODEL          PACKAGE MUMODEL         CONNECTED TO MODEL MUMODEL          PACKAGE RCH-1            ON UNIT   1015 AT TIME STEP      4, STRESS PERIOD     22

 WEL PACKAGE (WEL-1) FLOW RATES   PERIOD     22   STEP        4
 -----------------------------------------------
   NUMBER   CELLID                    RATE      
 -----------------------------------------------
     1      (1,5,5)              -20000.000     
     2      (1,11,5)              0.0000000     
     3      (1,5,5)               0.0000000     
 -----------------------------------------------




 CHD PACKAGE (CHD-FROM-IBOUND) FLOW RATES   PERIOD     22   STEP        4
 -----------------------------------------------
   NUMBER   CELLID                    RATE      
 -----------------------------------------------
     1      (1,1,1)              -5295.8119     
     2      (1,1,2)              -5295.7030     
     3      (1,1,3)              -5294.9585     
     4      (1,1,4)              -5291.4652     
     5      (1,1,5)              -5283.4819     
     6      (1,1,6)              -5291.4667     
     7      (1,1,7)              -5294.9613     
     8      (1,1,8)              -5295.7067     
     9      (1,1,9)              -5295.8159     
     10     (1,21,1)             -5295.8287     
     11     (1,21,2)             -5295.8276     
     12     (1,21,3)             -5295.8263     
     13     (1,21,4)             -5295.8253     
     14     (1,21,5)             -5295.8245     
     15     (1,21,6)             -5295.8241     
     16     (1,21,7)             -5295.8246     
     17     (1,21,8)             -5295.8261     
     18     (1,21,9)             -5295.8278     
 -----------------------------------------------




 HEAD WILL BE SAVED ON UNIT 1016 AT END OF TIME STEP    4, STRESS PERIOD   22


  VOLUME BUDGET FOR ENTIRE MODEL AT END OF TIME STEP    4, STRESS PERIOD  22
  ---------------------------------------------------------------------------------------------------

     CUMULATIVE VOLUME      L**3       RATES FOR THIS TIME STEP      L**3/T          PACKAGE NAME    
     ------------------                 ------------------------                     ----------------

           IN:                                      IN:
           ---                                      ---
              STO-SS =    22833168.3744                STO-SS =      103507.2166     STORAGE                          
              STO-SY =      720643.3236                STO-SY =        3244.5894     STORAGE                          
                 WEL =           0.0000                   WEL =           0.0000     WEL-1                            
                RCHA =   132907702.6288                  RCHA =        8550.0000     RCH-1                            
                 CHD =           0.0000                   CHD =           0.0000     CHD-FROM-IBOUND                  

            TOTAL IN =   156461514.3269              TOTAL IN =      115301.8059

          OUT:                                     OUT:
          ----                                     ----
              STO-SS =    91280055.2773                STO-SS =           0.0000     STORAGE                          
              STO-SY =     2781319.9403                STO-SY =           0.0000     STORAGE                          
                 WEL =     5055210.8277                   WEL =       20000.0000     WEL-1                            
                RCHA =           0.0000                  RCHA =           0.0000     RCH-1                            
                 CHD =    57344930.0027                   CHD =       95301.8059     CHD-FROM-IBOUND                  

           TOTAL OUT =   156461516.0480             TOTAL OUT =      115301.8059

            IN - OUT =          -1.7211              IN - OUT =      -8.8286E-06

 PERCENT DISCREPANCY =          -0.00     PERCENT DISCREPANCY =          -0.00




         TIME SUMMARY AT END OF TIME STEP    4 IN STRESS PERIOD   22
                    SECONDS     MINUTES      HOURS       DAYS        YEARS
                    -----------------------------------------------------------
   TIME STEP LENGTH 2.71468E+05  4524.5      75.408      3.1420     8.60231E-03
 STRESS PERIOD TIME 8.43311E+05  14055.      234.25      9.7605     2.67229E-02
         TOTAL TIME 5.34609E+07 8.91015E+05  14850.      618.76      1.6941    


end timestep


start timestep kper="22" kstp="5" mode="normal"

 UBDSV1 SAVING     FLOW-JA-FACE ON UNIT   1015 AT TIME STEP      5, STRESS PERIOD     22
 UBDSV06 SAVING              WEL IN MODEL MUMODEL          PACKAGE MUMODEL         CONNECTED TO MODEL MUMODEL          PACKAGE WEL-1            ON UNIT   1015 AT TIME STEP      5, STRESS PERIOD     22
 UBDSV06 SAVING             RCHA IN MODEL MUMODEL          PACKAGE MUMODEL         CONNECTED TO MODEL MUMODEL          PACKAGE RCH-1            ON UNIT   1015 AT TIME STEP      5, STRESS PERIOD     22

 WEL PACKAGE (WEL-1) FLOW RATES   PERIOD     22   STEP        5
 -----------------------------------------------
   NUMBER   CELLID                    RATE      
 -----------------------------------------------
     1      (1,5,5)              -20000.000     
     2      (1,11,5)              0.0000000     
     3      (1,5,5)               0.0000000     
 -----------------------------------------------




 CHD PACKAGE (CHD-FROM-IBOUND) FLOW RATES   PERIOD     22   STEP        5
 -----------------------------------------------
   NUMBER   CELLID                    RATE      
 -----------------------------------------------
     1      (1,1,1)              -5290.5339     
     2      (1,1,2)              -5290.4166     
     3      (1,1,3)              -5289.6244     
     4      (1,1,4)              -5285.9551     
     5      (1,1,5)              -5277.6866     
     6      (1,1,6)              -5285.9566     
     7      (1,1,7)              -5289.6272     
     8      (1,1,8)              -5290.4203     
     9      (1,1,9)              -5290.5379     
     10     (1,21,1)             -5290.5521     
     11     (1,21,2)             -5290.5510     
     12     (1,21,3)             -5290.5497     
     13     (1,21,4)             -5290.5487     
     14     (1,21,5)             -5290.5479     
     15     (1,21,6)             -5290.5476     
     16     (1,21,7)             -5290.5480     
     17     (1,21,8)             -5290.5496     
     18     (1,21,9)             -5290.5512     
 -----------------------------------------------




 HEAD WILL BE SAVED ON UNIT 1016 AT END OF TIME STEP    5, STRESS PERIOD   22


  VOLUME BUDGET FOR ENTIRE MODEL AT END OF TIME STEP    5, STRESS PERIOD  22
  ---------------------------------------------------------------------------------------------------

     CUMULATIVE VOLUME      L**3       RATES FOR THIS TIME STEP      L**3/T          PACKAGE NAME    
     ------------------                 ------------------------                     ----------------

           IN:                                      IN:
           ---                                      ---
              STO-SS =    23223082.0381                STO-SS =      103414.6509     STORAGE                          
              STO-SY =      732863.3626                STO-SY =        3241.0535     STORAGE                          
                 WEL =           0.0000                   WEL =           0.0000     WEL-1                            
                RCHA =   132939939.4715                  RCHA =        8550.0000     RCH-1                            
                 CHD =           0.0000                   CHD =           0.0000     CHD-FROM-IBOUND                  

            TOTAL IN =   156895884.8721              TOTAL IN =      115205.7044

          OUT:                                     OUT:
          ----                                     ----
              STO-SS =    91280055.2773                STO-SS =           0.0000     STORAGE                          
              STO-SY =     2781319.9403                STO-SY =           0.0000     STORAGE                          
                 WEL =     5130618.6467                   WEL =       20000.0000     WEL-1                            
                RCHA =           0.0000                  RCHA =           0.0000     RCH-1                            
                 CHD =    57703892.7290                   CHD =       95205.7044     CHD-FROM-IBOUND                  

           TOTAL OUT =   156895886.5933             TOTAL OUT =      115205.7044

            IN - OUT =          -1.7212              IN - OUT =      -1.5168E-05

 PERCENT DISCREPANCY =          -0.00     PERCENT DISCREPANCY =          -0.00




         TIME SUMMARY AT END OF TIME STEP    5 IN STRESS PERIOD   22
                    SECONDS     MINUTES      HOURS       DAYS        YEARS
                    -----------------------------------------------------------
   TIME STEP LENGTH 3.25762E+05  5429.4      90.489      3.7704     1.03228E-02
 STRESS PERIOD TIME 1.16907E+06  19485.      324.74      13.531     3.70457E-02
         TOTAL TIME 5.37867E+07 8.96445E+05  14941.      622.53      1.7044    


end timestep


start timestep kper="22" kstp="6" mode="normal"

 UBDSV1 SAVING     FLOW-JA-FACE ON UNIT   1015 AT TIME STEP      6, STRESS PERIOD     22
 UBDSV06 SAVING              WEL IN MODEL MUMODEL          PACKAGE MUMODEL         CONNECTED TO MODEL MUMODEL          PACKAGE WEL-1            ON UNIT   1015 AT TIME STEP      6, STRESS PERIOD     22
 UBDSV06 SAVING             RCHA IN MODEL MUMODEL          PACKAGE MUMODEL         CONNECTED TO MODEL MUMODEL          PACKAGE RCH-1            ON UNIT   1015 AT TIME STEP      6, STRESS PERIOD     22

 WEL PACKAGE (WEL-1) FLOW RATES   PERIOD     22   STEP        6
 -----------------------------------------------
   NUMBER   CELLID                    RATE      
 -----------------------------------------------
     1      (1,5,5)              -20000.000     
     2      (1,11,5)              0.0000000     
     3      (1,5,5)               0.0000000     
 -----------------------------------------------




 CHD PACKAGE (CHD-FROM-IBOUND) FLOW RATES   PERIOD     22   STEP        6
 -----------------------------------------------
   NUMBER   CELLID                    RATE      
 -----------------------------------------------
     1      (1,1,1)              -5284.2619     
     2      (1,1,2)              -5284.1339     
     3      (1,1,3)              -5283.2814     
     4      (1,1,4)              -5279.3933     
     5      (1,1,5)              -5270.7771     
     6      (1,1,6)              -5279.3948     
     7      (1,1,7)              -5283.2842     
     8      (1,1,8)              -5284.1376     
     9      (1,1,9)              -5284.2659     
     10     (1,21,1)             -5284.2820     
     11     (1,21,2)             -5284.2809     
     12     (1,21,3)             -5284.2796     
     13     (1,21,4)             -5284.2786     
     14     (1,21,5)             -5284.2779     
     15     (1,21,6)             -5284.2775     
     16     (1,21,7)             -5284.2780     
     17     (1,21,8)             -5284.2795     
     18     (1,21,9)             -5284.2811     
 -----------------------------------------------




 HEAD WILL BE SAVED ON UNIT 1016 AT END OF TIME STEP    6, STRESS PERIOD   22


  VOLUME BUDGET FOR ENTIRE MODEL AT END OF TIME STEP    6, STRESS PERIOD  22
  ---------------------------------------------------------------------------------------------------

     CUMULATIVE VOLUME      L**3       RATES FOR THIS TIME STEP      L**3/T          PACKAGE NAME    
     ------------------                 ------------------------                     ----------------

           IN:                                      IN:
           ---                                      ---
              STO-SS =    23690480.4662                STO-SS =      103304.5897     STORAGE                          
              STO-SY =      747508.4155                STO-SY =        3236.8555     STORAGE                          
                 WEL =           0.0000                   WEL =           0.0000     WEL-1                            
                RCHA =   132978623.6826                  RCHA =        8550.0000     RCH-1                            
                 CHD =           0.0000                   CHD =           0.0000     CHD-FROM-IBOUND                  

            TOTAL IN =   157416612.5643              TOTAL IN =      115091.4452

          OUT:                                     OUT:
          ----                                     ----
              STO-SS =    91280055.2773                STO-SS =           0.0000     STORAGE                          
              STO-SY =     2781319.9403                STO-SY =           0.0000     STORAGE                          
                 WEL =     5221108.0295                   WEL =       20000.0000     WEL-1                            
                RCHA =           0.0000                  RCHA =           0.0000     RCH-1                            
                 CHD =    58134131.0385                   CHD =       95091.4453     CHD-FROM-IBOUND                  

           TOTAL OUT =   157416614.2856             TOTAL OUT =      115091.4453

            IN - OUT =          -1.7213              IN - OUT =      -2.8132E-05

 PERCENT DISCREPANCY =          -0.00     PERCENT DISCREPANCY =          -0.00




         TIME SUMMARY AT END OF TIME STEP    6 IN STRESS PERIOD   22
                    SECONDS     MINUTES      HOURS       DAYS        YEARS
                    -----------------------------------------------------------
   TIME STEP LENGTH 3.90914E+05  6515.2      108.59      4.5245     1.23873E-02
 STRESS PERIOD TIME 1.55999E+06  26000.      433.33      18.055     4.94330E-02
         TOTAL TIME 5.41776E+07 9.02960E+05  15049.      627.06      1.7168    


end timestep


start timestep kper="22" kstp="7" mode="normal"

 UBDSV1 SAVING     FLOW-JA-FACE ON UNIT   1015 AT TIME STEP      7, STRESS PERIOD     22
 UBDSV06 SAVING              WEL IN MODEL MUMODEL          PACKAGE MUMODEL         CONNECTED TO MODEL MUMODEL          PACKAGE WEL-1            ON UNIT   1015 AT TIME STEP      7, STRESS PERIOD     22
 UBDSV06 SAVING             RCHA IN MODEL MUMODEL          PACKAGE MUMODEL         CONNECTED TO MODEL MUMODEL          PACKAGE RCH-1            ON UNIT   1015 AT TIME STEP      7, STRESS PERIOD     22

 WEL PACKAGE (WEL-1) FLOW RATES   PERIOD     22   STEP        7
 -----------------------------------------------
   NUMBER   CELLID                    RATE      
 -----------------------------------------------
     1      (1,5,5)              -20000.000     
     2      (1,11,5)              0.0000000     
     3      (1,5,5)               0.0000000     
 -----------------------------------------------




 CHD PACKAGE (CHD-FROM-IBOUND) FLOW RATES   PERIOD     22   STEP        7
 -----------------------------------------------
   NUMBER   CELLID                    RATE      
 -----------------------------------------------
     1      (1,1,1)              -5276.8226     
     2      (1,1,2)              -5276.6806     
     3      (1,1,3)              -5275.7511     
     4      (1,1,4)              -5271.5896     
     5      (1,1,5)              -5262.5486     
     6      (1,1,6)              -5271.5911     
     7      (1,1,7)              -5275.7539     
     8      (1,1,8)              -5276.6842     
     9      (1,1,9)              -5276.8265     
     10     (1,21,1)             -5276.8451     
     11     (1,21,2)             -5276.8440     
     12     (1,21,3)             -5276.8427     
     13     (1,21,4)             -5276.8417     
     14     (1,21,5)             -5276.8410     
     15     (1,21,6)             -5276.8406     
     16     (1,21,7)             -5276.8411     
     17     (1,21,8)             -5276.8426     
     18     (1,21,9)             -5276.8442     
 -----------------------------------------------




 HEAD WILL BE SAVED ON UNIT 1016 AT END OF TIME STEP    7, STRESS PERIOD   22


  VOLUME BUDGET FOR ENTIRE MODEL AT END OF TIME STEP    7, STRESS PERIOD  22
  ---------------------------------------------------------------------------------------------------

     CUMULATIVE VOLUME      L**3       RATES FOR THIS TIME STEP      L**3/T          PACKAGE NAME    
     ------------------                 ------------------------                     ----------------

           IN:                                      IN:
           ---                                      ---
              STO-SS =    24250649.2890                STO-SS =      103173.9499     STORAGE                          
              STO-SY =      765055.4724                STO-SY =        3231.8814     STORAGE                          
                 WEL =           0.0000                   WEL =           0.0000     WEL-1                            
                RCHA =   133025044.7360                  RCHA =        8550.0000     RCH-1                            
                 CHD =           0.0000                   CHD =           0.0000     CHD-FROM-IBOUND                  

            TOTAL IN =   158040749.4974              TOTAL IN =      114955.8313

          OUT:                                     OUT:
          ----                                     ----
              STO-SS =    91280055.2773                STO-SS =           0.0000     STORAGE                          
              STO-SY =     2781319.9403                STO-SY =           0.0000     STORAGE                          
                 WEL =     5329695.2888                   WEL =       20000.0000     WEL-1                            
                RCHA =           0.0000                  RCHA =           0.0000     RCH-1                            
                 CHD =    58649680.7125                   CHD =       94955.8313     CHD-FROM-IBOUND                  

           TOTAL OUT =   158040751.2189             TOTAL OUT =      114955.8313

            IN - OUT =          -1.7215              IN - OUT =      -4.6085E-05

 PERCENT DISCREPANCY =          -0.00     PERCENT DISCREPANCY =          -0.00




         TIME SUMMARY AT END OF TIME STEP    7 IN STRESS PERIOD   22
                    SECONDS     MINUTES      HOURS       DAYS        YEARS
                    -----------------------------------------------------------
   TIME STEP LENGTH 4.69097E+05  7818.3      130.30      5.4294     1.48648E-02
 STRESS PERIOD TIME 2.02908E+06  33818.      563.63      23.485     6.42978E-02
         TOTAL TIME 5.46467E+07 9.10778E+05  15180.      632.48      1.7316    


end timestep


start timestep kper="22" kstp="8" mode="normal"

 UBDSV1 SAVING     FLOW-JA-FACE ON UNIT   1015 AT TIME STEP      8, STRESS PERIOD     22
 UBDSV06 SAVING              WEL IN MODEL MUMODEL          PACKAGE MUMODEL         CONNECTED TO MODEL MUMODEL          PACKAGE WEL-1            ON UNIT   1015 AT TIME STEP      8, STRESS PERIOD     22
 UBDSV06 SAVING             RCHA IN MODEL MUMODEL          PACKAGE MUMODEL         CONNECTED TO MODEL MUMODEL          PACKAGE RCH-1            ON UNIT   1015 AT TIME STEP      8, STRESS PERIOD     22

 WEL PACKAGE (WEL-1) FLOW RATES   PERIOD     22   STEP        8
 -----------------------------------------------
   NUMBER   CELLID                    RATE      
 -----------------------------------------------
     1      (1,5,5)              -20000.000     
     2      (1,11,5)              0.0000000     
     3      (1,5,5)               0.0000000     
 -----------------------------------------------




 CHD PACKAGE (CHD-FROM-IBOUND) FLOW RATES   PERIOD     22   STEP        8
 -----------------------------------------------
   NUMBER   CELLID                    RATE      
 -----------------------------------------------
     1      (1,1,1)              -5268.0175     
     2      (1,1,2)              -5267.8571     
     3      (1,1,3)              -5266.8286     
     4      (1,1,4)              -5262.3234     
     5      (1,1,5)              -5252.7620     
     6      (1,1,6)              -5262.3248     
     7      (1,1,7)              -5266.8313     
     8      (1,1,8)              -5267.8607     
     9      (1,1,9)              -5268.0214     
     10     (1,21,1)             -5268.0433     
     11     (1,21,2)             -5268.0423     
     12     (1,21,3)             -5268.0410     
     13     (1,21,4)             -5268.0400     
     14     (1,21,5)             -5268.0393     
     15     (1,21,6)             -5268.0390     
     16     (1,21,7)             -5268.0395     
     17     (1,21,8)             -5268.0410     
     18     (1,21,9)             -5268.0425     
 -----------------------------------------------




 HEAD WILL BE SAVED ON UNIT 1016 AT END OF TIME STEP    8, STRESS PERIOD   22


  VOLUME BUDGET FOR ENTIRE MODEL AT END OF TIME STEP    8, STRESS PERIOD  22
  ---------------------------------------------------------------------------------------------------

     CUMULATIVE VOLUME      L**3       RATES FOR THIS TIME STEP      L**3/T          PACKAGE NAME    
     ------------------                 ------------------------                     ----------------

           IN:                                      IN:
           ---                                      ---
              STO-SS =    24921843.5993                STO-SS =      103019.1931     STORAGE                          
              STO-SY =      786073.6320                STO-SY =        3226.0015     STORAGE                          
                 WEL =           0.0000                   WEL =           0.0000     WEL-1                            
                RCHA =   133080750.0000                  RCHA =        8550.0000     RCH-1                            
                 CHD =           0.0000                   CHD =           0.0000     CHD-FROM-IBOUND                  

            TOTAL IN =   158788667.2312              TOTAL IN =      114795.1946

          OUT:                                     OUT:
          ----                                     ----
              STO-SS =    91280055.2773                STO-SS =           0.0000     STORAGE                          
              STO-SY =     2781319.9403                STO-SY =           0.0000     STORAGE                          
                 WEL =     5460000.0000                   WEL =       20000.0000     WEL-1                            
                RCHA =           0.0000                  RCHA =           0.0000     RCH-1                            
                 CHD =    59267293.7354                   CHD =       94795.1946     CHD-FROM-IBOUND                  

           TOTAL OUT =   158788668.9530             TOTAL OUT =      114795.1946

            IN - OUT =          -1.7218              IN - OUT =      -4.1796E-05

 PERCENT DISCREPANCY =          -0.00     PERCENT DISCREPANCY =          -0.00




         TIME SUMMARY AT END OF TIME STEP    8 IN STRESS PERIOD   22
                    SECONDS     MINUTES      HOURS       DAYS        YEARS
                    -----------------------------------------------------------
   TIME STEP LENGTH 5.62916E+05  9381.9      156.37      6.5152     1.78377E-02
 STRESS PERIOD TIME 2.59200E+06  43200.      720.00      30.000     8.21355E-02
         TOTAL TIME 5.52096E+07 9.20160E+05  15336.      639.00      1.7495    


end timestep


start timestep kper="23" kstp="1" mode="normal"


 OUTPUT CONTROL FOR STRESS PERIOD 23 IS REPEATED USING SETTINGS FROM A PREVIOUS STRESS PERIOD.


 STRESS PERIOD 23 IS TRANSIENT


 REUSING WELS FROM LAST STRESS PERIOD

 REUSING RCHS FROM LAST STRESS PERIOD

 REUSING CHDS FROM LAST STRESS PERIOD
 UBDSV1 SAVING     FLOW-JA-FACE ON UNIT   1015 AT TIME STEP      1, STRESS PERIOD     23
 UBDSV06 SAVING              WEL IN MODEL MUMODEL          PACKAGE MUMODEL         CONNECTED TO MODEL MUMODEL          PACKAGE WEL-1            ON UNIT   1015 AT TIME STEP      1, STRESS PERIOD     23
 UBDSV06 SAVING             RCHA IN MODEL MUMODEL          PACKAGE MUMODEL         CONNECTED TO MODEL MUMODEL          PACKAGE RCH-1            ON UNIT   1015 AT TIME STEP      1, STRESS PERIOD     23

 WEL PACKAGE (WEL-1) FLOW RATES   PERIOD     23   STEP        1
 -----------------------------------------------
   NUMBER   CELLID                    RATE      
 -----------------------------------------------
     1      (1,5,5)              -20000.000     
     2      (1,11,5)              0.0000000     
     3      (1,5,5)               0.0000000     
 -----------------------------------------------




 CHD PACKAGE (CHD-FROM-IBOUND) FLOW RATES   PERIOD     23   STEP        1
 -----------------------------------------------
   NUMBER   CELLID                    RATE      
 -----------------------------------------------
     1      (1,1,1)              -5265.4878     
     2      (1,1,2)              -5265.3219     
     3      (1,1,3)              -5264.2643     
     4      (1,1,4)              -5259.6585     
     5      (1,1,5)              -5249.9460     
     6      (1,1,6)              -5259.6599     
     7      (1,1,7)              -5264.2670     
     8      (1,1,8)              -5265.3255     
     9      (1,1,9)              -5265.4917     
     10     (1,21,1)             -5265.5146     
     11     (1,21,2)             -5265.5136     
     12     (1,21,3)             -5265.5123     
     13     (1,21,4)             -5265.5113     
     14     (1,21,5)             -5265.5106     
     15     (1,21,6)             -5265.5103     
     16     (1,21,7)             -5265.5108     
     17     (1,21,8)             -5265.5123     
     18     (1,21,9)             -5265.5138     
 -----------------------------------------------




 HEAD WILL BE SAVED ON UNIT 1016 AT END OF TIME STEP    1, STRESS PERIOD   23


  VOLUME BUDGET FOR ENTIRE MODEL AT END OF TIME STEP    1, STRESS PERIOD  23
  ---------------------------------------------------------------------------------------------------

     CUMULATIVE VOLUME      L**3       RATES FOR THIS TIME STEP      L**3/T          PACKAGE NAME    
     ------------------                 ------------------------                     ----------------

           IN:                                      IN:
           ---                                      ---
              STO-SS =    25115321.4049                STO-SS =      102974.4104     STORAGE                          
              STO-SY =      792132.3484                STO-SY =        3224.6218     STORAGE                          
                 WEL =           0.0000                   WEL =           0.0000     WEL-1                            
                RCHA =   133096814.5274                  RCHA =        8550.0000     RCH-1                            
                 CHD =           0.0000                   CHD =           0.0000     CHD-FROM-IBOUND                  

            TOTAL IN =   159004268.2807              TOTAL IN =      114749.0322

          OUT:                                     OUT:
          ----                                     ----
              STO-SS =    91280055.2773                STO-SS =           0.0000     STORAGE                          
              STO-SY =     2781319.9403                STO-SY =           0.0000     STORAGE                          
                 WEL =     5497577.8419                   WEL =       20000.0000     WEL-1                            
                RCHA =           0.0000                  RCHA =           0.0000     RCH-1                            
                 CHD =    59445316.9430                   CHD =       94749.0322     CHD-FROM-IBOUND                  

           TOTAL OUT =   159004270.0025             TOTAL OUT =      114749.0322

            IN - OUT =          -1.7218              IN - OUT =       4.9066E-07

 PERCENT DISCREPANCY =          -0.00     PERCENT DISCREPANCY =           0.00




         TIME SUMMARY AT END OF TIME STEP    1 IN STRESS PERIOD   23
                    SECONDS     MINUTES      HOURS       DAYS        YEARS
                    -----------------------------------------------------------
   TIME STEP LENGTH 1.62336E+05  2705.6      45.093      1.8789     5.14413E-03
 STRESS PERIOD TIME 1.62336E+05  2705.6      45.093      1.8789     5.14413E-03
         TOTAL TIME 5.53719E+07 9.22866E+05  15381.      640.88      1.7546    


end timestep


start timestep kper="23" kstp="2" mode="normal"

 UBDSV1 SAVING     FLOW-JA-FACE ON UNIT   1015 AT TIME STEP      2, STRESS PERIOD     23
 UBDSV06 SAVING              WEL IN MODEL MUMODEL          PACKAGE MUMODEL         CONNECTED TO MODEL MUMODEL          PACKAGE WEL-1            ON UNIT   1015 AT TIME STEP      2, STRESS PERIOD     23
 UBDSV06 SAVING             RCHA IN MODEL MUMODEL          PACKAGE MUMODEL         CONNECTED TO MODEL MUMODEL          PACKAGE RCH-1            ON UNIT   1015 AT TIME STEP      2, STRESS PERIOD     23

 WEL PACKAGE (WEL-1) FLOW RATES   PERIOD     23   STEP        2
 -----------------------------------------------
   NUMBER   CELLID                    RATE      
 -----------------------------------------------
     1      (1,5,5)              -20000.000     
     2      (1,11,5)              0.0000000     
     3      (1,5,5)               0.0000000     
 -----------------------------------------------




 CHD PACKAGE (CHD-FROM-IBOUND) FLOW RATES   PERIOD     23   STEP        2
 -----------------------------------------------
   NUMBER   CELLID                    RATE      
 -----------------------------------------------
     1      (1,1,1)              -5262.4671     
     2      (1,1,2)              -5262.2945     
     3      (1,1,3)              -5261.2011     
     4      (1,1,4)              -5256.4728     
     5      (1,1,5)              -5246.5780     
     6      (1,1,6)              -5256.4743     
     7      (1,1,7)              -5261.2038     
     8      (1,1,8)              -5262.2981     
     9      (1,1,9)              -5262.4710     
     10     (1,21,1)             -5262.4952     
     11     (1,21,2)             -5262.4942     
     12     (1,21,3)             -5262.4929     
     13     (1,21,4)             -5262.4919     
     14     (1,21,5)             -5262.4911     
     15     (1,21,6)             -5262.4908     
     16     (1,21,7)             -5262.4913     
     17     (1,21,8)             -5262.4928     
     18     (1,21,9)             -5262.4944     
 -----------------------------------------------




 HEAD WILL BE SAVED ON UNIT 1016 AT END OF TIME STEP    2, STRESS PERIOD   23


  VOLUME BUDGET FOR ENTIRE MODEL AT END OF TIME STEP    2, STRESS PERIOD  23
  ---------------------------------------------------------------------------------------------------

     CUMULATIVE VOLUME      L**3       RATES FOR THIS TIME STEP      L**3/T          PACKAGE NAME    
     ------------------                 ------------------------                     ----------------

           IN:                                      IN:
           ---                                      ---
              STO-SS =    25347375.0067                STO-SS =      102921.2918     STORAGE                          
              STO-SY =      799398.2575                STO-SY =        3222.6035     STORAGE                          
                 WEL =           0.0000                   WEL =           0.0000     WEL-1                            
                RCHA =   133116091.9603                  RCHA =        8550.0000     RCH-1                            
                 CHD =           0.0000                   CHD =           0.0000     CHD-FROM-IBOUND                  

            TOTAL IN =   159262865.2245              TOTAL IN =      114693.8953

          OUT:                                     OUT:
          ----                                     ----
              STO-SS =    91280055.2773                STO-SS =           0.0000     STORAGE                          
              STO-SY =     2781319.9403                STO-SY =           0.0000     STORAGE                          
                 WEL =     5542671.2522                   WEL =       20000.0000     WEL-1                            
                RCHA =           0.0000                  RCHA =           0.0000     RCH-1                            
                 CHD =    59658820.4766                   CHD =       94693.8953     CHD-FROM-IBOUND                  

           TOTAL OUT =   159262866.9463             TOTAL OUT =      114693.8953

            IN - OUT =          -1.7218              IN - OUT =      -6.4858E-06

 PERCENT DISCREPANCY =          -0.00     PERCENT DISCREPANCY =          -0.00




         TIME SUMMARY AT END OF TIME STEP    2 IN STRESS PERIOD   23
                    SECONDS     MINUTES      HOURS       DAYS        YEARS
                    -----------------------------------------------------------
   TIME STEP LENGTH 1.94804E+05  3246.7      54.112      2.2547     6.17295E-03
 STRESS PERIOD TIME 3.57140E+05  5952.3      99.206      4.1336     1.13171E-02
         TOTAL TIME 5.55667E+07 9.26112E+05  15435.      643.13      1.7608    


end timestep


start timestep kper="23" kstp="3" mode="normal"

 UBDSV1 SAVING     FLOW-JA-FACE ON UNIT   1015 AT TIME STEP      3, STRESS PERIOD     23
 UBDSV06 SAVING              WEL IN MODEL MUMODEL          PACKAGE MUMODEL         CONNECTED TO MODEL MUMODEL          PACKAGE WEL-1            ON UNIT   1015 AT TIME STEP      3, STRESS PERIOD     23
 UBDSV06 SAVING             RCHA IN MODEL MUMODEL          PACKAGE MUMODEL         CONNECTED TO MODEL MUMODEL          PACKAGE RCH-1            ON UNIT   1015 AT TIME STEP      3, STRESS PERIOD     23

 WEL PACKAGE (WEL-1) FLOW RATES   PERIOD     23   STEP        3
 -----------------------------------------------
   NUMBER   CELLID                    RATE      
 -----------------------------------------------
     1      (1,5,5)              -20000.000     
     2      (1,11,5)              0.0000000     
     3      (1,5,5)               0.0000000     
 -----------------------------------------------




 CHD PACKAGE (CHD-FROM-IBOUND) FLOW RATES   PERIOD     23   STEP        3
 -----------------------------------------------
   NUMBER   CELLID                    RATE      
 -----------------------------------------------
     1      (1,1,1)              -5258.8629     
     2      (1,1,2)              -5258.6818     
     3      (1,1,3)              -5257.5442     
     4      (1,1,4)              -5252.6664     
     5      (1,1,5)              -5242.5511     
     6      (1,1,6)              -5252.6678     
     7      (1,1,7)              -5257.5469     
     8      (1,1,8)              -5258.6854     
     9      (1,1,9)              -5258.8667     
     10     (1,21,1)             -5258.8924     
     11     (1,21,2)             -5258.8914     
     12     (1,21,3)             -5258.8902     
     13     (1,21,4)             -5258.8892     
     14     (1,21,5)             -5258.8884     
     15     (1,21,6)             -5258.8881     
     16     (1,21,7)             -5258.8886     
     17     (1,21,8)             -5258.8901     
     18     (1,21,9)             -5258.8917     
 -----------------------------------------------




 HEAD WILL BE SAVED ON UNIT 1016 AT END OF TIME STEP    3, STRESS PERIOD   23


  VOLUME BUDGET FOR ENTIRE MODEL AT END OF TIME STEP    3, STRESS PERIOD  23
  ---------------------------------------------------------------------------------------------------

     CUMULATIVE VOLUME      L**3       RATES FOR THIS TIME STEP      L**3/T          PACKAGE NAME    
     ------------------                 ------------------------                     ----------------

           IN:                                      IN:
           ---                                      ---
              STO-SS =    25625667.7800                STO-SS =      102857.8868     STORAGE                          
              STO-SY =      808110.8363                STO-SY =        3220.1966     STORAGE                          
                 WEL =           0.0000                   WEL =           0.0000     WEL-1                            
                RCHA =   133139224.8798                  RCHA =        8550.0000     RCH-1                            
                 CHD =           0.0000                   CHD =           0.0000     CHD-FROM-IBOUND                  

            TOTAL IN =   159573003.4961              TOTAL IN =      114628.0834

          OUT:                                     OUT:
          ----                                     ----
              STO-SS =    91280055.2773                STO-SS =           0.0000     STORAGE                          
              STO-SY =     2781319.9403                STO-SY =           0.0000     STORAGE                          
                 WEL =     5596783.3445                   WEL =       20000.0000     WEL-1                            
                RCHA =           0.0000                  RCHA =           0.0000     RCH-1                            
                 CHD =    59914846.6558                   CHD =       94628.0834     CHD-FROM-IBOUND                  

           TOTAL OUT =   159573005.2179             TOTAL OUT =      114628.0834

            IN - OUT =          -1.7219              IN - OUT =      -8.6359E-06

 PERCENT DISCREPANCY =          -0.00     PERCENT DISCREPANCY =          -0.00




         TIME SUMMARY AT END OF TIME STEP    3 IN STRESS PERIOD   23
                    SECONDS     MINUTES      HOURS       DAYS        YEARS
                    -----------------------------------------------------------
   TIME STEP LENGTH 2.33764E+05  3896.1      64.935      2.7056     7.40754E-03
 STRESS PERIOD TIME 5.90904E+05  9848.4      164.14      6.8392     1.87246E-02
         TOTAL TIME 5.58005E+07 9.30008E+05  15500.      645.84      1.7682    


end timestep


start timestep kper="23" kstp="4" mode="normal"

 UBDSV1 SAVING     FLOW-JA-FACE ON UNIT   1015 AT TIME STEP      4, STRESS PERIOD     23
 UBDSV06 SAVING              WEL IN MODEL MUMODEL          PACKAGE MUMODEL         CONNECTED TO MODEL MUMODEL          PACKAGE WEL-1            ON UNIT   1015 AT TIME STEP      4, STRESS PERIOD     23
 UBDSV06 SAVING             RCHA IN MODEL MUMODEL          PACKAGE MUMODEL         CONNECTED TO MODEL MUMODEL          PACKAGE RCH-1            ON UNIT   1015 AT TIME STEP      4, STRESS PERIOD     23

 WEL PACKAGE (WEL-1) FLOW RATES   PERIOD     23   STEP        4
 -----------------------------------------------
   NUMBER   CELLID                    RATE      
 -----------------------------------------------
     1      (1,5,5)              -20000.000     
     2      (1,11,5)              0.0000000     
     3      (1,5,5)               0.0000000     
 -----------------------------------------------




 CHD PACKAGE (CHD-FROM-IBOUND) FLOW RATES   PERIOD     23   STEP        4
 -----------------------------------------------
   NUMBER   CELLID                    RATE      
 -----------------------------------------------
     1      (1,1,1)              -5254.5669     
     2      (1,1,2)              -5254.3754     
     3      (1,1,3)              -5253.1831     
     4      (1,1,4)              -5248.1217     
     5      (1,1,5)              -5237.7394     
     6      (1,1,6)              -5248.1231     
     7      (1,1,7)              -5253.1858     
     8      (1,1,8)              -5254.3789     
     9      (1,1,9)              -5254.5708     
     10     (1,21,1)             -5254.5985     
     11     (1,21,2)             -5254.5975     
     12     (1,21,3)             -5254.5962     
     13     (1,21,4)             -5254.5952     
     14     (1,21,5)             -5254.5945     
     15     (1,21,6)             -5254.5942     
     16     (1,21,7)             -5254.5947     
     17     (1,21,8)             -5254.5962     
     18     (1,21,9)             -5254.5978     
 -----------------------------------------------




 HEAD WILL BE SAVED ON UNIT 1016 AT END OF TIME STEP    4, STRESS PERIOD   23


  VOLUME BUDGET FOR ENTIRE MODEL AT END OF TIME STEP    4, STRESS PERIOD  23
  ---------------------------------------------------------------------------------------------------

     CUMULATIVE VOLUME      L**3       RATES FOR THIS TIME STEP      L**3/T          PACKAGE NAME    
     ------------------                 ------------------------                     ----------------

           IN:                                      IN:
           ---                                      ---
              STO-SS =    25959373.6340                STO-SS =      102782.2802     STORAGE                          
              STO-SY =      818556.6230                STO-SY =        3217.3298     STORAGE                          
                 WEL =           0.0000                   WEL =           0.0000     WEL-1                            
                RCHA =   133166984.3831                  RCHA =        8550.0000     RCH-1                            
                 CHD =           0.0000                   CHD =           0.0000     CHD-FROM-IBOUND                  

            TOTAL IN =   159944914.6402              TOTAL IN =      114549.6099

          OUT:                                     OUT:
          ----                                     ----
              STO-SS =    91280055.2773                STO-SS =           0.0000     STORAGE                          
              STO-SY =     2781319.9403                STO-SY =           0.0000     STORAGE                          
                 WEL =     5661717.8553                   WEL =       20000.0000     WEL-1                            
                RCHA =           0.0000                  RCHA =           0.0000     RCH-1                            
                 CHD =    60221823.2891                   CHD =       94549.6099     CHD-FROM-IBOUND                  

           TOTAL OUT =   159944916.3620             TOTAL OUT =      114549.6099

            IN - OUT =          -1.7219              IN - OUT =      -8.9776E-06

 PERCENT DISCREPANCY =          -0.00     PERCENT DISCREPANCY =          -0.00




         TIME SUMMARY AT END OF TIME STEP    4 IN STRESS PERIOD   23
                    SECONDS     MINUTES      HOURS       DAYS        YEARS
                    -----------------------------------------------------------
   TIME STEP LENGTH 2.80517E+05  4675.3      77.921      3.2467     8.88905E-03
 STRESS PERIOD TIME 8.71421E+05  14524.      242.06      10.086     2.76137E-02
         TOTAL TIME 5.60810E+07 9.34684E+05  15578.      649.09      1.7771    


end timestep


start timestep kper="23" kstp="5" mode="normal"

 UBDSV1 SAVING     FLOW-JA-FACE ON UNIT   1015 AT TIME STEP      5, STRESS PERIOD     23
 UBDSV06 SAVING              WEL IN MODEL MUMODEL          PACKAGE MUMODEL         CONNECTED TO MODEL MUMODEL          PACKAGE WEL-1            ON UNIT   1015 AT TIME STEP      5, STRESS PERIOD     23
 UBDSV06 SAVING             RCHA IN MODEL MUMODEL          PACKAGE MUMODEL         CONNECTED TO MODEL MUMODEL          PACKAGE RCH-1            ON UNIT   1015 AT TIME STEP      5, STRESS PERIOD     23

 WEL PACKAGE (WEL-1) FLOW RATES   PERIOD     23   STEP        5
 -----------------------------------------------
   NUMBER   CELLID                    RATE      
 -----------------------------------------------
     1      (1,5,5)              -20000.000     
     2      (1,11,5)              0.0000000     
     3      (1,5,5)               0.0000000     
 -----------------------------------------------




 CHD PACKAGE (CHD-FROM-IBOUND) FLOW RATES   PERIOD     23   STEP        5
 -----------------------------------------------
   NUMBER   CELLID                    RATE      
 -----------------------------------------------
     1      (1,1,1)              -5249.4533     
     2      (1,1,2)              -5249.2485     
     3      (1,1,3)              -5247.9879     
     4      (1,1,4)              -5242.7007     
     5      (1,1,5)              -5231.9946     
     6      (1,1,6)              -5242.7021     
     7      (1,1,7)              -5247.9906     
     8      (1,1,8)              -5249.2520     
     9      (1,1,9)              -5249.4571     
     10     (1,21,1)             -5249.4874     
     11     (1,21,2)             -5249.4864     
     12     (1,21,3)             -5249.4851     
     13     (1,21,4)             -5249.4841     
     14     (1,21,5)             -5249.4834     
     15     (1,21,6)             -5249.4831     
     16     (1,21,7)             -5249.4836     
     17     (1,21,8)             -5249.4851     
     18     (1,21,9)             -5249.4867     
 -----------------------------------------------




 HEAD WILL BE SAVED ON UNIT 1016 AT END OF TIME STEP    5, STRESS PERIOD   23


  VOLUME BUDGET FOR ENTIRE MODEL AT END OF TIME STEP    5, STRESS PERIOD  23
  ---------------------------------------------------------------------------------------------------

     CUMULATIVE VOLUME      L**3       RATES FOR THIS TIME STEP      L**3/T          PACKAGE NAME    
     ------------------                 ------------------------                     ----------------

           IN:                                      IN:
           ---                                      ---
              STO-SS =    26359469.8246                STO-SS =      102692.2319     STORAGE                          
              STO-SY =      831078.2818                STO-SY =        3213.9199     STORAGE                          
                 WEL =           0.0000                   WEL =           0.0000     WEL-1                            
                RCHA =   133200295.7872                  RCHA =        8550.0000     RCH-1                            
                 CHD =           0.0000                   CHD =           0.0000     CHD-FROM-IBOUND                  

            TOTAL IN =   160390843.8936              TOTAL IN =      114456.1518

          OUT:                                     OUT:
          ----                                     ----
              STO-SS =    91280055.2773                STO-SS =           0.0000     STORAGE                          
              STO-SY =     2781319.9403                STO-SY =           0.0000     STORAGE                          
                 WEL =     5739639.2682                   WEL =       20000.0000     WEL-1                            
                RCHA =           0.0000                  RCHA =           0.0000     RCH-1                            
                 CHD =    60589831.1297                   CHD =       94456.1518     CHD-FROM-IBOUND                  

           TOTAL OUT =   160390845.6155             TOTAL OUT =      114456.1518

            IN - OUT =          -1.7219              IN - OUT =      -1.7248E-05

 PERCENT DISCREPANCY =          -0.00     PERCENT DISCREPANCY =          -0.00




         TIME SUMMARY AT END OF TIME STEP    5 IN STRESS PERIOD   23
                    SECONDS     MINUTES      HOURS       DAYS        YEARS
                    -----------------------------------------------------------
   TIME STEP LENGTH 3.36621E+05  5610.3      93.506      3.8961     1.06669E-02
 STRESS PERIOD TIME 1.20804E+06  20134.      335.57      13.982     3.82805E-02
         TOTAL TIME 5.64176E+07 9.40294E+05  15672.      652.98      1.7878    


end timestep


start timestep kper="23" kstp="6" mode="normal"

 UBDSV1 SAVING     FLOW-JA-FACE ON UNIT   1015 AT TIME STEP      6, STRESS PERIOD     23
 UBDSV06 SAVING              WEL IN MODEL MUMODEL          PACKAGE MUMODEL         CONNECTED TO MODEL MUMODEL          PACKAGE WEL-1            ON UNIT   1015 AT TIME STEP      6, STRESS PERIOD     23
 UBDSV06 SAVING             RCHA IN MODEL MUMODEL          PACKAGE MUMODEL         CONNECTED TO MODEL MUMODEL          PACKAGE RCH-1            ON UNIT   1015 AT TIME STEP      6, STRESS PERIOD     23

 WEL PACKAGE (WEL-1) FLOW RATES   PERIOD     23   STEP        6
 -----------------------------------------------
   NUMBER   CELLID                    RATE      
 -----------------------------------------------
     1      (1,5,5)              -20000.000     
     2      (1,11,5)              0.0000000     
     3      (1,5,5)               0.0000000     
 -----------------------------------------------




 CHD PACKAGE (CHD-FROM-IBOUND) FLOW RATES   PERIOD     23   STEP        6
 -----------------------------------------------
   NUMBER   CELLID                    RATE      
 -----------------------------------------------
     1      (1,1,1)              -5243.3756     
     2      (1,1,2)              -5243.1539     
     3      (1,1,3)              -5241.8076     
     4      (1,1,4)              -5236.2413     
     5      (1,1,5)              -5225.1421     
     6      (1,1,6)              -5236.2427     
     7      (1,1,7)              -5241.8103     
     8      (1,1,8)              -5243.1573     
     9      (1,1,9)              -5243.3794     
     10     (1,21,1)             -5243.4130     
     11     (1,21,2)             -5243.4120     
     12     (1,21,3)             -5243.4108     
     13     (1,21,4)             -5243.4098     
     14     (1,21,5)             -5243.4091     
     15     (1,21,6)             -5243.4088     
     16     (1,21,7)             -5243.4093     
     17     (1,21,8)             -5243.4108     
     18     (1,21,9)             -5243.4123     
 -----------------------------------------------




 HEAD WILL BE SAVED ON UNIT 1016 AT END OF TIME STEP    6, STRESS PERIOD   23


  VOLUME BUDGET FOR ENTIRE MODEL AT END OF TIME STEP    6, STRESS PERIOD  23
  ---------------------------------------------------------------------------------------------------

     CUMULATIVE VOLUME      L**3       RATES FOR THIS TIME STEP      L**3/T          PACKAGE NAME    
     ------------------                 ------------------------                     ----------------

           IN:                                      IN:
           ---                                      ---
              STO-SS =    26839084.5435                STO-SS =      102585.1348     STORAGE                          
              STO-SY =      846085.3423                STO-SY =        3209.8709     STORAGE                          
                 WEL =           0.0000                   WEL =           0.0000     WEL-1                            
                RCHA =   133240269.4720                  RCHA =        8550.0000     RCH-1                            
                 CHD =           0.0000                   CHD =           0.0000     CHD-FROM-IBOUND                  

            TOTAL IN =   160925439.3578              TOTAL IN =      114345.0057

          OUT:                                     OUT:
          ----                                     ----
              STO-SS =    91280055.2773                STO-SS =           0.0000     STORAGE                          
              STO-SY =     2781319.9403                STO-SY =           0.0000     STORAGE                          
                 WEL =     5833144.9638                   WEL =       20000.0000     WEL-1                            
                RCHA =           0.0000                  RCHA =           0.0000     RCH-1                            
                 CHD =    61030920.8986                   CHD =       94345.0057     CHD-FROM-IBOUND                  

           TOTAL OUT =   160925441.0799             TOTAL OUT =      114345.0057

            IN - OUT =          -1.7221              IN - OUT =      -3.0992E-05

 PERCENT DISCREPANCY =          -0.00     PERCENT DISCREPANCY =          -0.00




         TIME SUMMARY AT END OF TIME STEP    6 IN STRESS PERIOD   23
                    SECONDS     MINUTES      HOURS       DAYS        YEARS
                    -----------------------------------------------------------
   TIME STEP LENGTH 4.03945E+05  6732.4      112.21      4.6753     1.28002E-02
 STRESS PERIOD TIME 1.61199E+06  26866.      447.77      18.657     5.10808E-02
         TOTAL TIME 5.68216E+07 9.47026E+05  15784.      657.66      1.8006    


end timestep


start timestep kper="23" kstp="7" mode="normal"

 UBDSV1 SAVING     FLOW-JA-FACE ON UNIT   1015 AT TIME STEP      7, STRESS PERIOD     23
 UBDSV06 SAVING              WEL IN MODEL MUMODEL          PACKAGE MUMODEL         CONNECTED TO MODEL MUMODEL          PACKAGE WEL-1            ON UNIT   1015 AT TIME STEP      7, STRESS PERIOD     23
 UBDSV06 SAVING             RCHA IN MODEL MUMODEL          PACKAGE MUMODEL         CONNECTED TO MODEL MUMODEL          PACKAGE RCH-1            ON UNIT   1015 AT TIME STEP      7, STRESS PERIOD     23

 WEL PACKAGE (WEL-1) FLOW RATES   PERIOD     23   STEP        7
 -----------------------------------------------
   NUMBER   CELLID                    RATE      
 -----------------------------------------------
     1      (1,5,5)              -20000.000     
     2      (1,11,5)              0.0000000     
     3      (1,5,5)               0.0000000     
 -----------------------------------------------




 CHD PACKAGE (CHD-FROM-IBOUND) FLOW RATES   PERIOD     23   STEP        7
 -----------------------------------------------
   NUMBER   CELLID                    RATE      
 -----------------------------------------------
     1      (1,1,1)              -5236.1651     
     2      (1,1,2)              -5235.9216     
     3      (1,1,3)              -5234.4670     
     4      (1,1,4)              -5228.5540     
     5      (1,1,5)              -5216.9767     
     6      (1,1,6)              -5228.5554     
     7      (1,1,7)              -5234.4696     
     8      (1,1,8)              -5235.9250     
     9      (1,1,9)              -5236.1689     
     10     (1,21,1)             -5236.2068     
     11     (1,21,2)             -5236.2058     
     12     (1,21,3)             -5236.2046     
     13     (1,21,4)             -5236.2036     
     14     (1,21,5)             -5236.2029     
     15     (1,21,6)             -5236.2027     
     16     (1,21,7)             -5236.2032     
     17     (1,21,8)             -5236.2046     
     18     (1,21,9)             -5236.2061     
 -----------------------------------------------




 HEAD WILL BE SAVED ON UNIT 1016 AT END OF TIME STEP    7, STRESS PERIOD   23


  VOLUME BUDGET FOR ENTIRE MODEL AT END OF TIME STEP    7, STRESS PERIOD  23
  ---------------------------------------------------------------------------------------------------

     CUMULATIVE VOLUME      L**3       RATES FOR THIS TIME STEP      L**3/T          PACKAGE NAME    
     ------------------                 ------------------------                     ----------------

           IN:                                      IN:
           ---                                      ---
              STO-SS =    27413908.7754                STO-SS =      102457.9712     STORAGE                          
              STO-SY =      864066.8946                STO-SY =        3205.0726     STORAGE                          
                 WEL =           0.0000                   WEL =           0.0000     WEL-1                            
                RCHA =   133288237.8938                  RCHA =        8550.0000     RCH-1                            
                 CHD =           0.0000                   CHD =           0.0000     CHD-FROM-IBOUND                  

            TOTAL IN =   161566213.5638              TOTAL IN =      114213.0438

          OUT:                                     OUT:
          ----                                     ----
              STO-SS =    91280055.2773                STO-SS =           0.0000     STORAGE                          
              STO-SY =     2781319.9403                STO-SY =           0.0000     STORAGE                          
                 WEL =     5945351.7984                   WEL =       20000.0000     WEL-1                            
                RCHA =           0.0000                  RCHA =           0.0000     RCH-1                            
                 CHD =    61559488.2702                   CHD =       94213.0439     CHD-FROM-IBOUND                  

           TOTAL OUT =   161566215.2862             TOTAL OUT =      114213.0439

            IN - OUT =          -1.7224              IN - OUT =      -5.5085E-05

 PERCENT DISCREPANCY =          -0.00     PERCENT DISCREPANCY =          -0.00




         TIME SUMMARY AT END OF TIME STEP    7 IN STRESS PERIOD   23
                    SECONDS     MINUTES      HOURS       DAYS        YEARS
                    -----------------------------------------------------------
   TIME STEP LENGTH 4.84734E+05  8078.9      134.65      5.6103     1.53603E-02
 STRESS PERIOD TIME 2.09672E+06  34945.      582.42      24.268     6.64410E-02
         TOTAL TIME 5.73063E+07 9.55105E+05  15918.      663.27      1.8159    


end timestep


start timestep kper="23" kstp="8" mode="normal"

 UBDSV1 SAVING     FLOW-JA-FACE ON UNIT   1015 AT TIME STEP      8, STRESS PERIOD     23
 UBDSV06 SAVING              WEL IN MODEL MUMODEL          PACKAGE MUMODEL         CONNECTED TO MODEL MUMODEL          PACKAGE WEL-1            ON UNIT   1015 AT TIME STEP      8, STRESS PERIOD     23
 UBDSV06 SAVING             RCHA IN MODEL MUMODEL          PACKAGE MUMODEL         CONNECTED TO MODEL MUMODEL          PACKAGE RCH-1            ON UNIT   1015 AT TIME STEP      8, STRESS PERIOD     23

 WEL PACKAGE (WEL-1) FLOW RATES   PERIOD     23   STEP        8
 -----------------------------------------------
   NUMBER   CELLID                    RATE      
 -----------------------------------------------
     1      (1,5,5)              -20000.000     
     2      (1,11,5)              0.0000000     
     3      (1,5,5)               0.0000000     
 -----------------------------------------------




 CHD PACKAGE (CHD-FROM-IBOUND) FLOW RATES   PERIOD     23   STEP        8
 -----------------------------------------------
   NUMBER   CELLID                    RATE      
 -----------------------------------------------
     1      (1,1,1)              -5227.6288     
     2      (1,1,2)              -5227.3569     
     3      (1,1,3)              -5225.7640     
     4      (1,1,4)              -5219.4184     
     5      (1,1,5)              -5207.2587     
     6      (1,1,6)              -5219.4198     
     7      (1,1,7)              -5225.7666     
     8      (1,1,8)              -5227.3603     
     9      (1,1,9)              -5227.6325     
     10     (1,21,1)             -5227.6763     
     11     (1,21,2)             -5227.6753     
     12     (1,21,3)             -5227.6741     
     13     (1,21,4)             -5227.6731     
     14     (1,21,5)             -5227.6724     
     15     (1,21,6)             -5227.6722     
     16     (1,21,7)             -5227.6727     
     17     (1,21,8)             -5227.6742     
     18     (1,21,9)             -5227.6756     
 -----------------------------------------------




 HEAD WILL BE SAVED ON UNIT 1016 AT END OF TIME STEP    8, STRESS PERIOD   23


  VOLUME BUDGET FOR ENTIRE MODEL AT END OF TIME STEP    8, STRESS PERIOD  23
  ---------------------------------------------------------------------------------------------------

     CUMULATIVE VOLUME      L**3       RATES FOR THIS TIME STEP      L**3/T          PACKAGE NAME    
     ------------------                 ------------------------                     ----------------

           IN:                                      IN:
           ---                                      ---
              STO-SS =    28102683.2883                STO-SS =      102307.2726     STORAGE                          
              STO-SY =      885606.5631                STO-SY =        3199.3994     STORAGE                          
                 WEL =           0.0000                   WEL =           0.0000     WEL-1                            
                RCHA =   133345800.0000                  RCHA =        8550.0000     RCH-1                            
                 CHD =           0.0000                   CHD =           0.0000     CHD-FROM-IBOUND                  

            TOTAL IN =   162334089.8514              TOTAL IN =      114056.6719

          OUT:                                     OUT:
          ----                                     ----
              STO-SS =    91280055.2773                STO-SS =           0.0000     STORAGE                          
              STO-SY =     2781319.9403                STO-SY =           0.0000     STORAGE                          
                 WEL =     6080000.0000                   WEL =       20000.0000     WEL-1                            
                RCHA =           0.0000                  RCHA =           0.0000     RCH-1                            
                 CHD =    62192716.3565                   CHD =       94056.6720     CHD-FROM-IBOUND                  

           TOTAL OUT =   162334091.5741             TOTAL OUT =      114056.6720

            IN - OUT =          -1.7227              IN - OUT =      -4.1899E-05

 PERCENT DISCREPANCY =          -0.00     PERCENT DISCREPANCY =          -0.00




         TIME SUMMARY AT END OF TIME STEP    8 IN STRESS PERIOD   23
                    SECONDS     MINUTES      HOURS       DAYS        YEARS
                    -----------------------------------------------------------
   TIME STEP LENGTH 5.81680E+05  9694.7      161.58      6.7324     1.84323E-02
 STRESS PERIOD TIME 2.67840E+06  44640.      744.00      31.000     8.48734E-02
         TOTAL TIME 5.78880E+07 9.64800E+05  16080.      670.00      1.8344    


end timestep


start timestep kper="24" kstp="1" mode="normal"


 OUTPUT CONTROL FOR STRESS PERIOD 24 IS REPEATED USING SETTINGS FROM A PREVIOUS STRESS PERIOD.


 STRESS PERIOD 24 IS TRANSIENT


 REUSING WELS FROM LAST STRESS PERIOD

 REUSING RCHS FROM LAST STRESS PERIOD

 REUSING CHDS FROM LAST STRESS PERIOD
 UBDSV1 SAVING     FLOW-JA-FACE ON UNIT   1015 AT TIME STEP      1, STRESS PERIOD     24
 UBDSV06 SAVING              WEL IN MODEL MUMODEL          PACKAGE MUMODEL         CONNECTED TO MODEL MUMODEL          PACKAGE WEL-1            ON UNIT   1015 AT TIME STEP      1, STRESS PERIOD     24
 UBDSV06 SAVING             RCHA IN MODEL MUMODEL          PACKAGE MUMODEL         CONNECTED TO MODEL MUMODEL          PACKAGE RCH-1            ON UNIT   1015 AT TIME STEP      1, STRESS PERIOD     24

 WEL PACKAGE (WEL-1) FLOW RATES   PERIOD     24   STEP        1
 -----------------------------------------------
   NUMBER   CELLID                    RATE      
 -----------------------------------------------
     1      (1,5,5)              -20000.000     
     2      (1,11,5)              0.0000000     
     3      (1,5,5)               0.0000000     
 -----------------------------------------------




 CHD PACKAGE (CHD-FROM-IBOUND) FLOW RATES   PERIOD     24   STEP        1
 -----------------------------------------------
   NUMBER   CELLID                    RATE      
 -----------------------------------------------
     1      (1,1,1)              -5225.3311     
     2      (1,1,2)              -5225.0514     
     3      (1,1,3)              -5223.4206     
     4      (1,1,4)              -5216.9567     
     5      (1,1,5)              -5204.6390     
     6      (1,1,6)              -5216.9581     
     7      (1,1,7)              -5223.4231     
     8      (1,1,8)              -5225.0548     
     9      (1,1,9)              -5225.3348     
     10     (1,21,1)             -5225.3802     
     11     (1,21,2)             -5225.3793     
     12     (1,21,3)             -5225.3781     
     13     (1,21,4)             -5225.3771     
     14     (1,21,5)             -5225.3764     
     15     (1,21,6)             -5225.3762     
     16     (1,21,7)             -5225.3767     
     17     (1,21,8)             -5225.3782     
     18     (1,21,9)             -5225.3796     
 -----------------------------------------------




 HEAD WILL BE SAVED ON UNIT 1016 AT END OF TIME STEP    1, STRESS PERIOD   24


  VOLUME BUDGET FOR ENTIRE MODEL AT END OF TIME STEP    1, STRESS PERIOD  24
  ---------------------------------------------------------------------------------------------------

     CUMULATIVE VOLUME      L**3       RATES FOR THIS TIME STEP      L**3/T          PACKAGE NAME    
     ------------------                 ------------------------                     ----------------

           IN:                                      IN:
           ---                                      ---
              STO-SS =    28288632.4973                STO-SS =      102266.3923     STORAGE                          
              STO-SY =      891421.7572                STO-SY =        3198.1794     STORAGE                          
                 WEL =           0.0000                   WEL =           0.0000     WEL-1                            
                RCHA =   133361346.3168                  RCHA =        8550.0000     RCH-1                            
                 CHD =           0.0000                   CHD =           0.0000     CHD-FROM-IBOUND                  

            TOTAL IN =   162541400.5714              TOTAL IN =      114014.5716

          OUT:                                     OUT:
          ----                                     ----
              STO-SS =    91280055.2773                STO-SS =           0.0000     STORAGE                          
              STO-SY =     2781319.9403                STO-SY =           0.0000     STORAGE                          
                 WEL =     6116365.6534                   WEL =       20000.0000     WEL-1                            
                RCHA =           0.0000                  RCHA =           0.0000     RCH-1                            
                 CHD =    62363661.4230                   CHD =       94014.5716     CHD-FROM-IBOUND                  

           TOTAL OUT =   162541402.2941             TOTAL OUT =      114014.5716

            IN - OUT =          -1.7227              IN - OUT =       6.9235E-07

 PERCENT DISCREPANCY =          -0.00     PERCENT DISCREPANCY =           0.00




         TIME SUMMARY AT END OF TIME STEP    1 IN STRESS PERIOD   24
                    SECONDS     MINUTES      HOURS       DAYS        YEARS
                    -----------------------------------------------------------
   TIME STEP LENGTH 1.57100E+05  2618.3      43.639      1.8183     4.97819E-03
 STRESS PERIOD TIME 1.57100E+05  2618.3      43.639      1.8183     4.97819E-03
         TOTAL TIME 5.80451E+07 9.67418E+05  16124.      671.82      1.8393    


end timestep


start timestep kper="24" kstp="2" mode="normal"

 UBDSV1 SAVING     FLOW-JA-FACE ON UNIT   1015 AT TIME STEP      2, STRESS PERIOD     24
 UBDSV06 SAVING              WEL IN MODEL MUMODEL          PACKAGE MUMODEL         CONNECTED TO MODEL MUMODEL          PACKAGE WEL-1            ON UNIT   1015 AT TIME STEP      2, STRESS PERIOD     24
 UBDSV06 SAVING             RCHA IN MODEL MUMODEL          PACKAGE MUMODEL         CONNECTED TO MODEL MUMODEL          PACKAGE RCH-1            ON UNIT   1015 AT TIME STEP      2, STRESS PERIOD     24

 WEL PACKAGE (WEL-1) FLOW RATES   PERIOD     24   STEP        2
 -----------------------------------------------
   NUMBER   CELLID                    RATE      
 -----------------------------------------------
     1      (1,5,5)              -20000.000     
     2      (1,11,5)              0.0000000     
     3      (1,5,5)               0.0000000     
 -----------------------------------------------




 CHD PACKAGE (CHD-FROM-IBOUND) FLOW RATES   PERIOD     24   STEP        2
 -----------------------------------------------
   NUMBER   CELLID                    RATE      
 -----------------------------------------------
     1      (1,1,1)              -5222.5866     
     2      (1,1,2)              -5222.2973     
     3      (1,1,3)              -5220.6200     
     4      (1,1,4)              -5214.0127     
     5      (1,1,5)              -5201.5046     
     6      (1,1,6)              -5214.0141     
     7      (1,1,7)              -5220.6225     
     8      (1,1,8)              -5222.3006     
     9      (1,1,9)              -5222.5903     
     10     (1,21,1)             -5222.6377     
     11     (1,21,2)             -5222.6367     
     12     (1,21,3)             -5222.6356     
     13     (1,21,4)             -5222.6346     
     14     (1,21,5)             -5222.6339     
     15     (1,21,6)             -5222.6336     
     16     (1,21,7)             -5222.6342     
     17     (1,21,8)             -5222.6356     
     18     (1,21,9)             -5222.6371     
 -----------------------------------------------




 HEAD WILL BE SAVED ON UNIT 1016 AT END OF TIME STEP    2, STRESS PERIOD   24


  VOLUME BUDGET FOR ENTIRE MODEL AT END OF TIME STEP    2, STRESS PERIOD  24
  ---------------------------------------------------------------------------------------------------

     CUMULATIVE VOLUME      L**3       RATES FOR THIS TIME STEP      L**3/T          PACKAGE NAME    
     ------------------                 ------------------------                     ----------------

           IN:                                      IN:
           ---                                      ---
              STO-SS =    28511665.7694                STO-SS =      102217.9130     STORAGE                          
              STO-SY =      898396.0085                STO-SY =        3196.3545     STORAGE                          
                 WEL =           0.0000                   WEL =           0.0000     WEL-1                            
                RCHA =   133380001.8971                  RCHA =        8550.0000     RCH-1                            
                 CHD =           0.0000                   CHD =           0.0000     CHD-FROM-IBOUND                  

            TOTAL IN =   162790063.6750              TOTAL IN =      113964.2676

          OUT:                                     OUT:
          ----                                     ----
              STO-SS =    91280055.2773                STO-SS =           0.0000     STORAGE                          
              STO-SY =     2781319.9403                STO-SY =           0.0000     STORAGE                          
                 WEL =     6160004.4376                   WEL =       20000.0000     WEL-1                            
                RCHA =           0.0000                  RCHA =           0.0000     RCH-1                            
                 CHD =    62568685.7424                   CHD =       93964.2676     CHD-FROM-IBOUND                  

           TOTAL OUT =   162790065.3976             TOTAL OUT =      113964.2676

            IN - OUT =          -1.7227              IN - OUT =      -6.0015E-07

 PERCENT DISCREPANCY =          -0.00     PERCENT DISCREPANCY =          -0.00




         TIME SUMMARY AT END OF TIME STEP    2 IN STRESS PERIOD   24
                    SECONDS     MINUTES      HOURS       DAYS        YEARS
                    -----------------------------------------------------------
   TIME STEP LENGTH 1.88520E+05  3142.0      52.367      2.1819     5.97382E-03
 STRESS PERIOD TIME 3.45619E+05  5760.3      96.005      4.0002     1.09520E-02
         TOTAL TIME 5.82336E+07 9.70560E+05  16176.      674.00      1.8453    


end timestep


start timestep kper="24" kstp="3" mode="normal"

 UBDSV1 SAVING     FLOW-JA-FACE ON UNIT   1015 AT TIME STEP      3, STRESS PERIOD     24
 UBDSV06 SAVING              WEL IN MODEL MUMODEL          PACKAGE MUMODEL         CONNECTED TO MODEL MUMODEL          PACKAGE WEL-1            ON UNIT   1015 AT TIME STEP      3, STRESS PERIOD     24
 UBDSV06 SAVING             RCHA IN MODEL MUMODEL          PACKAGE MUMODEL         CONNECTED TO MODEL MUMODEL          PACKAGE RCH-1            ON UNIT   1015 AT TIME STEP      3, STRESS PERIOD     24

 WEL PACKAGE (WEL-1) FLOW RATES   PERIOD     24   STEP        3
 -----------------------------------------------
   NUMBER   CELLID                    RATE      
 -----------------------------------------------
     1      (1,5,5)              -20000.000     
     2      (1,11,5)              0.0000000     
     3      (1,5,5)               0.0000000     
 -----------------------------------------------




 CHD PACKAGE (CHD-FROM-IBOUND) FLOW RATES   PERIOD     24   STEP        3
 -----------------------------------------------
   NUMBER   CELLID                    RATE      
 -----------------------------------------------
     1      (1,1,1)              -5219.3103     
     2      (1,1,2)              -5219.0091     
     3      (1,1,3)              -5217.2748     
     4      (1,1,4)              -5210.4928     
     5      (1,1,5)              -5197.7551     
     6      (1,1,6)              -5210.4942     
     7      (1,1,7)              -5217.2773     
     8      (1,1,8)              -5219.0124     
     9      (1,1,9)              -5219.3139     
     10     (1,21,1)             -5219.3639     
     11     (1,21,2)             -5219.3629     
     12     (1,21,3)             -5219.3618     
     13     (1,21,4)             -5219.3608     
     14     (1,21,5)             -5219.3601     
     15     (1,21,6)             -5219.3599     
     16     (1,21,7)             -5219.3604     
     17     (1,21,8)             -5219.3618     
     18     (1,21,9)             -5219.3633     
 -----------------------------------------------




 HEAD WILL BE SAVED ON UNIT 1016 AT END OF TIME STEP    3, STRESS PERIOD   24


  VOLUME BUDGET FOR ENTIRE MODEL AT END OF TIME STEP    3, STRESS PERIOD  24
  ---------------------------------------------------------------------------------------------------

     CUMULATIVE VOLUME      L**3       RATES FOR THIS TIME STEP      L**3/T          PACKAGE NAME    
     ------------------                 ------------------------                     ----------------

           IN:                                      IN:
           ---                                      ---
              STO-SS =    28779154.1065                STO-SS =      102160.0175     STORAGE                          
              STO-SY =      906759.4093                STO-SY =        3194.1773     STORAGE                          
                 WEL =           0.0000                   WEL =           0.0000     WEL-1                            
                RCHA =   133402388.5933                  RCHA =        8550.0000     RCH-1                            
                 CHD =           0.0000                   CHD =           0.0000     CHD-FROM-IBOUND                  

            TOTAL IN =   163088302.1091              TOTAL IN =      113904.1948

          OUT:                                     OUT:
          ----                                     ----
              STO-SS =    91280055.2773                STO-SS =           0.0000     STORAGE                          
              STO-SY =     2781319.9403                STO-SY =           0.0000     STORAGE                          
                 WEL =     6212370.9785                   WEL =       20000.0000     WEL-1                            
                RCHA =           0.0000                  RCHA =           0.0000     RCH-1                            
                 CHD =    62814557.6356                   CHD =       93904.1948     CHD-FROM-IBOUND                  

           TOTAL OUT =   163088303.8318             TOTAL OUT =      113904.1948

            IN - OUT =          -1.7227              IN - OUT =      -2.4962E-06

 PERCENT DISCREPANCY =          -0.00     PERCENT DISCREPANCY =          -0.00




         TIME SUMMARY AT END OF TIME STEP    3 IN STRESS PERIOD   24
                    SECONDS     MINUTES      HOURS       DAYS        YEARS
                    -----------------------------------------------------------
   TIME STEP LENGTH 2.26223E+05  3770.4      62.840      2.6183     7.16859E-03
 STRESS PERIOD TIME 5.71843E+05  9530.7      158.85      6.6185     1.81206E-02
         TOTAL TIME 5.84598E+07 9.74331E+05  16239.      676.62      1.8525    


end timestep


start timestep kper="24" kstp="4" mode="normal"

 UBDSV1 SAVING     FLOW-JA-FACE ON UNIT   1015 AT TIME STEP      4, STRESS PERIOD     24
 UBDSV06 SAVING              WEL IN MODEL MUMODEL          PACKAGE MUMODEL         CONNECTED TO MODEL MUMODEL          PACKAGE WEL-1            ON UNIT   1015 AT TIME STEP      4, STRESS PERIOD     24
 UBDSV06 SAVING             RCHA IN MODEL MUMODEL          PACKAGE MUMODEL         CONNECTED TO MODEL MUMODEL          PACKAGE RCH-1            ON UNIT   1015 AT TIME STEP      4, STRESS PERIOD     24

 WEL PACKAGE (WEL-1) FLOW RATES   PERIOD     24   STEP        4
 -----------------------------------------------
   NUMBER   CELLID                    RATE      
 -----------------------------------------------
     1      (1,5,5)              -20000.000     
     2      (1,11,5)              0.0000000     
     3      (1,5,5)               0.0000000     
 -----------------------------------------------




 CHD PACKAGE (CHD-FROM-IBOUND) FLOW RATES   PERIOD     24   STEP        4
 -----------------------------------------------
   NUMBER   CELLID                    RATE      
 -----------------------------------------------
     1      (1,1,1)              -5215.4031     
     2      (1,1,2)              -5215.0871     
     3      (1,1,3)              -5213.2826     
     4      (1,1,4)              -5206.2875     
     5      (1,1,5)              -5193.2724     
     6      (1,1,6)              -5206.2888     
     7      (1,1,7)              -5213.2851     
     8      (1,1,8)              -5215.0904     
     9      (1,1,9)              -5215.4068     
     10     (1,21,1)             -5215.4599     
     11     (1,21,2)             -5215.4590     
     12     (1,21,3)             -5215.4578     
     13     (1,21,4)             -5215.4568     
     14     (1,21,5)             -5215.4561     
     15     (1,21,6)             -5215.4559     
     16     (1,21,7)             -5215.4564     
     17     (1,21,8)             -5215.4579     
     18     (1,21,9)             -5215.4593     
 -----------------------------------------------




 HEAD WILL BE SAVED ON UNIT 1016 AT END OF TIME STEP    4, STRESS PERIOD   24


  VOLUME BUDGET FOR ENTIRE MODEL AT END OF TIME STEP    4, STRESS PERIOD  24
  ---------------------------------------------------------------------------------------------------

     CUMULATIVE VOLUME      L**3       RATES FOR THIS TIME STEP      L**3/T          PACKAGE NAME    
     ------------------                 ------------------------                     ----------------

           IN:                                      IN:
           ---                                      ---
              STO-SS =    29099923.0718                STO-SS =      102090.9406     STORAGE                          
              STO-SY =      916787.3373                STO-SY =        3191.5825     STORAGE                          
                 WEL =           0.0000                   WEL =           0.0000     WEL-1                            
                RCHA =   133429252.6288                  RCHA =        8550.0000     RCH-1                            
                 CHD =           0.0000                   CHD =           0.0000     CHD-FROM-IBOUND                  

            TOTAL IN =   163445963.0379              TOTAL IN =      113832.5230

          OUT:                                     OUT:
          ----                                     ----
              STO-SS =    91280055.2773                STO-SS =           0.0000     STORAGE                          
              STO-SY =     2781319.9403                STO-SY =           0.0000     STORAGE                          
                 WEL =     6275210.8277                   WEL =       20000.0000     WEL-1                            
                RCHA =           0.0000                  RCHA =           0.0000     RCH-1                            
                 CHD =    63109378.7153                   CHD =       93832.5230     CHD-FROM-IBOUND                  

           TOTAL OUT =   163445964.7606             TOTAL OUT =      113832.5230

            IN - OUT =          -1.7227              IN - OUT =      -1.0566E-05

 PERCENT DISCREPANCY =          -0.00     PERCENT DISCREPANCY =          -0.00




         TIME SUMMARY AT END OF TIME STEP    4 IN STRESS PERIOD   24
                    SECONDS     MINUTES      HOURS       DAYS        YEARS
                    -----------------------------------------------------------
   TIME STEP LENGTH 2.71468E+05  4524.5      75.408      3.1420     8.60231E-03
 STRESS PERIOD TIME 8.43311E+05  14055.      234.25      9.7605     2.67229E-02
         TOTAL TIME 5.87313E+07 9.78855E+05  16314.      679.76      1.8611    


end timestep


start timestep kper="24" kstp="5" mode="normal"

 UBDSV1 SAVING     FLOW-JA-FACE ON UNIT   1015 AT TIME STEP      5, STRESS PERIOD     24
 UBDSV06 SAVING              WEL IN MODEL MUMODEL          PACKAGE MUMODEL         CONNECTED TO MODEL MUMODEL          PACKAGE WEL-1            ON UNIT   1015 AT TIME STEP      5, STRESS PERIOD     24
 UBDSV06 SAVING             RCHA IN MODEL MUMODEL          PACKAGE MUMODEL         CONNECTED TO MODEL MUMODEL          PACKAGE RCH-1            ON UNIT   1015 AT TIME STEP      5, STRESS PERIOD     24

 WEL PACKAGE (WEL-1) FLOW RATES   PERIOD     24   STEP        5
 -----------------------------------------------
   NUMBER   CELLID                    RATE      
 -----------------------------------------------
     1      (1,5,5)              -20000.000     
     2      (1,11,5)              0.0000000     
     3      (1,5,5)               0.0000000     
 -----------------------------------------------




 CHD PACKAGE (CHD-FROM-IBOUND) FLOW RATES   PERIOD     24   STEP        5
 -----------------------------------------------
   NUMBER   CELLID                    RATE      
 -----------------------------------------------
     1      (1,1,1)              -5210.7493     
     2      (1,1,2)              -5210.4147     
     3      (1,1,3)              -5208.5232     
     4      (1,1,4)              -5201.2671     
     5      (1,1,5)              -5187.9169     
     6      (1,1,6)              -5201.2684     
     7      (1,1,7)              -5208.5257     
     8      (1,1,8)              -5210.4180     
     9      (1,1,9)              -5210.7529     
     10     (1,21,1)             -5210.8100     
     11     (1,21,2)             -5210.8091     
     12     (1,21,3)             -5210.8079     
     13     (1,21,4)             -5210.8070     
     14     (1,21,5)             -5210.8063     
     15     (1,21,6)             -5210.8061     
     16     (1,21,7)             -5210.8066     
     17     (1,21,8)             -5210.8080     
     18     (1,21,9)             -5210.8095     
 -----------------------------------------------




 HEAD WILL BE SAVED ON UNIT 1016 AT END OF TIME STEP    5, STRESS PERIOD   24


  VOLUME BUDGET FOR ENTIRE MODEL AT END OF TIME STEP    5, STRESS PERIOD  24
  ---------------------------------------------------------------------------------------------------

     CUMULATIVE VOLUME      L**3       RATES FOR THIS TIME STEP      L**3/T          PACKAGE NAME    
     ------------------                 ------------------------                     ----------------

           IN:                                      IN:
           ---                                      ---
              STO-SS =    29484535.4209                STO-SS =      102008.6125     STORAGE                          
              STO-SY =      928809.2062                STO-SY =        3188.4940     STORAGE                          
                 WEL =           0.0000                   WEL =           0.0000     WEL-1                            
                RCHA =   133461489.4715                  RCHA =        8550.0000     RCH-1                            
                 CHD =           0.0000                   CHD =           0.0000     CHD-FROM-IBOUND                  

            TOTAL IN =   163874834.0986              TOTAL IN =      113747.1065

          OUT:                                     OUT:
          ----                                     ----
              STO-SS =    91280055.2773                STO-SS =           0.0000     STORAGE                          
              STO-SY =     2781319.9403                STO-SY =           0.0000     STORAGE                          
                 WEL =     6350618.6467                   WEL =       20000.0000     WEL-1                            
                RCHA =           0.0000                  RCHA =           0.0000     RCH-1                            
                 CHD =    63462841.9571                   CHD =       93747.1065     CHD-FROM-IBOUND                  

           TOTAL OUT =   163874835.8214             TOTAL OUT =      113747.1065

            IN - OUT =          -1.7228              IN - OUT =      -1.7927E-05

 PERCENT DISCREPANCY =          -0.00     PERCENT DISCREPANCY =          -0.00




         TIME SUMMARY AT END OF TIME STEP    5 IN STRESS PERIOD   24
                    SECONDS     MINUTES      HOURS       DAYS        YEARS
                    -----------------------------------------------------------
   TIME STEP LENGTH 3.25762E+05  5429.4      90.489      3.7704     1.03228E-02
 STRESS PERIOD TIME 1.16907E+06  19485.      324.74      13.531     3.70457E-02
         TOTAL TIME 5.90571E+07 9.84285E+05  16405.      683.53      1.8714    


end timestep


start timestep kper="24" kstp="6" mode="normal"

 UBDSV1 SAVING     FLOW-JA-FACE ON UNIT   1015 AT TIME STEP      6, STRESS PERIOD     24
 UBDSV06 SAVING              WEL IN MODEL MUMODEL          PACKAGE MUMODEL         CONNECTED TO MODEL MUMODEL          PACKAGE WEL-1            ON UNIT   1015 AT TIME STEP      6, STRESS PERIOD     24
 UBDSV06 SAVING             RCHA IN MODEL MUMODEL          PACKAGE MUMODEL         CONNECTED TO MODEL MUMODEL          PACKAGE RCH-1            ON UNIT   1015 AT TIME STEP      6, STRESS PERIOD     24

 WEL PACKAGE (WEL-1) FLOW RATES   PERIOD     24   STEP        6
 -----------------------------------------------
   NUMBER   CELLID                    RATE      
 -----------------------------------------------
     1      (1,5,5)              -20000.000     
     2      (1,11,5)              0.0000000     
     3      (1,5,5)               0.0000000     
 -----------------------------------------------




 CHD PACKAGE (CHD-FROM-IBOUND) FLOW RATES   PERIOD     24   STEP        6
 -----------------------------------------------
   NUMBER   CELLID                    RATE      
 -----------------------------------------------
     1      (1,1,1)              -5205.2137     
     2      (1,1,2)              -5204.8558     
     3      (1,1,3)              -5202.8560     
     4      (1,1,4)              -5195.2792     
     5      (1,1,5)              -5181.5237     
     6      (1,1,6)              -5195.2805     
     7      (1,1,7)              -5202.8585     
     8      (1,1,8)              -5204.8591     
     9      (1,1,9)              -5205.2173     
     10     (1,21,1)             -5205.2796     
     11     (1,21,2)             -5205.2787     
     12     (1,21,3)             -5205.2775     
     13     (1,21,4)             -5205.2766     
     14     (1,21,5)             -5205.2759     
     15     (1,21,6)             -5205.2757     
     16     (1,21,7)             -5205.2762     
     17     (1,21,8)             -5205.2777     
     18     (1,21,9)             -5205.2791     
 -----------------------------------------------




 HEAD WILL BE SAVED ON UNIT 1016 AT END OF TIME STEP    6, STRESS PERIOD   24


  VOLUME BUDGET FOR ENTIRE MODEL AT END OF TIME STEP    6, STRESS PERIOD  24
  ---------------------------------------------------------------------------------------------------

     CUMULATIVE VOLUME      L**3       RATES FOR THIS TIME STEP      L**3/T          PACKAGE NAME    
     ------------------                 ------------------------                     ----------------

           IN:                                      IN:
           ---                                      ---
              STO-SS =    29945626.8628                STO-SS =      101910.6171     STORAGE                          
              STO-SY =      943218.8427                STO-SY =        3184.8237     STORAGE                          
                 WEL =           0.0000                   WEL =           0.0000     WEL-1                            
                RCHA =   133500173.6826                  RCHA =        8550.0000     RCH-1                            
                 CHD =           0.0000                   CHD =           0.0000     CHD-FROM-IBOUND                  

            TOTAL IN =   164389019.3881              TOTAL IN =      113645.4408

          OUT:                                     OUT:
          ----                                     ----
              STO-SS =    91280055.2773                STO-SS =           0.0000     STORAGE                          
              STO-SY =     2781319.9403                STO-SY =           0.0000     STORAGE                          
                 WEL =     6441108.0295                   WEL =       20000.0000     WEL-1                            
                RCHA =           0.0000                  RCHA =           0.0000     RCH-1                            
                 CHD =    63886537.8640                   CHD =       93645.4408     CHD-FROM-IBOUND                  

           TOTAL OUT =   164389021.1111             TOTAL OUT =      113645.4408

            IN - OUT =          -1.7229              IN - OUT =      -3.4974E-05

 PERCENT DISCREPANCY =          -0.00     PERCENT DISCREPANCY =          -0.00




         TIME SUMMARY AT END OF TIME STEP    6 IN STRESS PERIOD   24
                    SECONDS     MINUTES      HOURS       DAYS        YEARS
                    -----------------------------------------------------------
   TIME STEP LENGTH 3.90914E+05  6515.2      108.59      4.5245     1.23873E-02
 STRESS PERIOD TIME 1.55999E+06  26000.      433.33      18.055     4.94330E-02
         TOTAL TIME 5.94480E+07 9.90800E+05  16513.      688.06      1.8838    


end timestep


start timestep kper="24" kstp="7" mode="normal"

 UBDSV1 SAVING     FLOW-JA-FACE ON UNIT   1015 AT TIME STEP      7, STRESS PERIOD     24
 UBDSV06 SAVING              WEL IN MODEL MUMODEL          PACKAGE MUMODEL         CONNECTED TO MODEL MUMODEL          PACKAGE WEL-1            ON UNIT   1015 AT TIME STEP      7, STRESS PERIOD     24
 UBDSV06 SAVING             RCHA IN MODEL MUMODEL          PACKAGE MUMODEL         CONNECTED TO MODEL MUMODEL          PACKAGE RCH-1            ON UNIT   1015 AT TIME STEP      7, STRESS PERIOD     24

 WEL PACKAGE (WEL-1) FLOW RATES   PERIOD     24   STEP        7
 -----------------------------------------------
   NUMBER   CELLID                    RATE      
 -----------------------------------------------
     1      (1,5,5)              -20000.000     
     2      (1,11,5)              0.0000000     
     3      (1,5,5)               0.0000000     
 -----------------------------------------------




 CHD PACKAGE (CHD-FROM-IBOUND) FLOW RATES   PERIOD     24   STEP        7
 -----------------------------------------------
   NUMBER   CELLID                    RATE      
 -----------------------------------------------
     1      (1,1,1)              -5198.6405     
     2      (1,1,2)              -5198.2527     
     3      (1,1,3)              -5196.1172     
     4      (1,1,4)              -5188.1450     
     5      (1,1,5)              -5173.8987     
     6      (1,1,6)              -5188.1464     
     7      (1,1,7)              -5196.1197     
     8      (1,1,8)              -5198.2560     
     9      (1,1,9)              -5198.6440     
     10     (1,21,1)             -5198.7130     
     11     (1,21,2)             -5198.7121     
     12     (1,21,3)             -5198.7110     
     13     (1,21,4)             -5198.7100     
     14     (1,21,5)             -5198.7094     
     15     (1,21,6)             -5198.7091     
     16     (1,21,7)             -5198.7097     
     17     (1,21,8)             -5198.7111     
     18     (1,21,9)             -5198.7125     
 -----------------------------------------------




 HEAD WILL BE SAVED ON UNIT 1016 AT END OF TIME STEP    7, STRESS PERIOD   24


  VOLUME BUDGET FOR ENTIRE MODEL AT END OF TIME STEP    7, STRESS PERIOD  24
  ---------------------------------------------------------------------------------------------------

     CUMULATIVE VOLUME      L**3       RATES FOR THIS TIME STEP      L**3/T          PACKAGE NAME    
     ------------------                 ------------------------                     ----------------

           IN:                                      IN:
           ---                                      ---
              STO-SS =    30498304.2417                STO-SS =      101794.1483     STORAGE                          
              STO-SY =      960486.7681                STO-SY =        3180.4699     STORAGE                          
                 WEL =           0.0000                   WEL =           0.0000     WEL-1                            
                RCHA =   133546594.7360                  RCHA =        8550.0000     RCH-1                            
                 CHD =           0.0000                   CHD =           0.0000     CHD-FROM-IBOUND                  

            TOTAL IN =   165005385.7457              TOTAL IN =      113524.6182

          OUT:                                     OUT:
          ----                                     ----
              STO-SS =    91280055.2773                STO-SS =           0.0000     STORAGE                          
              STO-SY =     2781319.9403                STO-SY =           0.0000     STORAGE                          
                 WEL =     6549695.2888                   WEL =       20000.0000     WEL-1                            
                RCHA =           0.0000                  RCHA =           0.0000     RCH-1                            
                 CHD =    64394316.9626                   CHD =       93524.6182     CHD-FROM-IBOUND                  

           TOTAL OUT =   165005387.4690             TOTAL OUT =      113524.6182

            IN - OUT =          -1.7233              IN - OUT =      -6.0580E-05

 PERCENT DISCREPANCY =          -0.00     PERCENT DISCREPANCY =          -0.00




         TIME SUMMARY AT END OF TIME STEP    7 IN STRESS PERIOD   24
                    SECONDS     MINUTES      HOURS       DAYS        YEARS
                    -----------------------------------------------------------
   TIME STEP LENGTH 4.69097E+05  7818.3      130.30      5.4294     1.48648E-02
 STRESS PERIOD TIME 2.02908E+06  33818.      563.63      23.485     6.42978E-02
         TOTAL TIME 5.99171E+07 9.98618E+05  16644.      693.48      1.8987    


end timestep


start timestep kper="24" kstp="8" mode="normal"

 UBDSV1 SAVING     FLOW-JA-FACE ON UNIT   1015 AT TIME STEP      8, STRESS PERIOD     24
 UBDSV06 SAVING              WEL IN MODEL MUMODEL          PACKAGE MUMODEL         CONNECTED TO MODEL MUMODEL          PACKAGE WEL-1            ON UNIT   1015 AT TIME STEP      8, STRESS PERIOD     24
 UBDSV06 SAVING             RCHA IN MODEL MUMODEL          PACKAGE MUMODEL         CONNECTED TO MODEL MUMODEL          PACKAGE RCH-1            ON UNIT   1015 AT TIME STEP      8, STRESS PERIOD     24

 WEL PACKAGE (WEL-1) FLOW RATES   PERIOD     24   STEP        8
 -----------------------------------------------
   NUMBER   CELLID                    RATE      
 -----------------------------------------------
     1      (1,5,5)              -20000.000     
     2      (1,11,5)              0.0000000     
     3      (1,5,5)               0.0000000     
 -----------------------------------------------




 CHD PACKAGE (CHD-FROM-IBOUND) FLOW RATES   PERIOD     24   STEP        8
 -----------------------------------------------
   NUMBER   CELLID                    RATE      
 -----------------------------------------------
     1      (1,1,1)              -5190.8501     
     2      (1,1,2)              -5190.4241     
     3      (1,1,3)              -5188.1173     
     4      (1,1,4)              -5179.6556     
     5      (1,1,5)              -5164.8143     
     6      (1,1,6)              -5179.6569     
     7      (1,1,7)              -5188.1198     
     8      (1,1,8)              -5190.4274     
     9      (1,1,9)              -5190.8536     
     10     (1,21,1)             -5190.9314     
     11     (1,21,2)             -5190.9305     
     12     (1,21,3)             -5190.9294     
     13     (1,21,4)             -5190.9285     
     14     (1,21,5)             -5190.9278     
     15     (1,21,6)             -5190.9276     
     16     (1,21,7)             -5190.9282     
     17     (1,21,8)             -5190.9296     
     18     (1,21,9)             -5190.9309     
 -----------------------------------------------




 HEAD WILL BE SAVED ON UNIT 1016 AT END OF TIME STEP    8, STRESS PERIOD   24


  VOLUME BUDGET FOR ENTIRE MODEL AT END OF TIME STEP    8, STRESS PERIOD  24
  ---------------------------------------------------------------------------------------------------

     CUMULATIVE VOLUME      L**3       RATES FOR THIS TIME STEP      L**3/T          PACKAGE NAME    
     ------------------                 ------------------------                     ----------------

           IN:                                      IN:
           ---                                      ---
              STO-SS =    31160616.8105                STO-SS =      101655.9667     STORAGE                          
              STO-SY =      981174.7016                STO-SY =        3175.3163     STORAGE                          
                 WEL =           0.0000                   WEL =           0.0000     WEL-1                            
                RCHA =   133602300.0000                  RCHA =        8550.0000     RCH-1                            
                 CHD =           0.0000                   CHD =           0.0000     CHD-FROM-IBOUND                  

            TOTAL IN =   165744091.5122              TOTAL IN =      113381.2829

          OUT:                                     OUT:
          ----                                     ----
              STO-SS =    91280055.2773                STO-SS =           0.0000     STORAGE                          
              STO-SY =     2781319.9403                STO-SY =           0.0000     STORAGE                          
                 WEL =     6680000.0000                   WEL =       20000.0000     WEL-1                            
                RCHA =           0.0000                  RCHA =           0.0000     RCH-1                            
                 CHD =    65002718.0180                   CHD =       93381.2830     CHD-FROM-IBOUND                  

           TOTAL OUT =   165744093.2356             TOTAL OUT =      113381.2830

            IN - OUT =          -1.7235              IN - OUT =      -3.2225E-05

 PERCENT DISCREPANCY =          -0.00     PERCENT DISCREPANCY =          -0.00




         TIME SUMMARY AT END OF TIME STEP    8 IN STRESS PERIOD   24
                    SECONDS     MINUTES      HOURS       DAYS        YEARS
                    -----------------------------------------------------------
   TIME STEP LENGTH 5.62916E+05  9381.9      156.37      6.5152     1.78377E-02
 STRESS PERIOD TIME 2.59200E+06  43200.      720.00      30.000     8.21355E-02
         TOTAL TIME 6.04800E+07 1.00800E+06  16800.      700.00      1.9165    


end timestep


start timestep kper="25" kstp="1" mode="normal"


 OUTPUT CONTROL FOR STRESS PERIOD 25 IS REPEATED USING SETTINGS FROM A PREVIOUS STRESS PERIOD.


 STRESS PERIOD 25 IS TRANSIENT


 REUSING WELS FROM LAST STRESS PERIOD

 REUSING CHDS FROM LAST STRESS PERIOD
 UBDSV1 SAVING     FLOW-JA-FACE ON UNIT   1015 AT TIME STEP      1, STRESS PERIOD     25
 UBDSV06 SAVING              WEL IN MODEL MUMODEL          PACKAGE MUMODEL         CONNECTED TO MODEL MUMODEL          PACKAGE WEL-1            ON UNIT   1015 AT TIME STEP      1, STRESS PERIOD     25
 UBDSV06 SAVING             RCHA IN MODEL MUMODEL          PACKAGE MUMODEL         CONNECTED TO MODEL MUMODEL          PACKAGE RCH-1            ON UNIT   1015 AT TIME STEP      1, STRESS PERIOD     25

 WEL PACKAGE (WEL-1) FLOW RATES   PERIOD     25   STEP        1
 -----------------------------------------------
   NUMBER   CELLID                    RATE      
 -----------------------------------------------
     1      (1,5,5)              -20000.000     
     2      (1,11,5)              0.0000000     
     3      (1,5,5)               0.0000000     
 -----------------------------------------------




 CHD PACKAGE (CHD-FROM-IBOUND) FLOW RATES   PERIOD     25   STEP        1
 -----------------------------------------------
   NUMBER   CELLID                    RATE      
 -----------------------------------------------
     1      (1,1,1)              -5190.1837     
     2      (1,1,2)              -5189.7465     
     3      (1,1,3)              -5187.3896     
     4      (1,1,4)              -5178.7853     
     5      (1,1,5)              -5163.7721     
     6      (1,1,6)              -5178.7866     
     7      (1,1,7)              -5187.3920     
     8      (1,1,8)              -5189.7497     
     9      (1,1,9)              -5190.1872     
     10     (1,21,1)             -5190.2676     
     11     (1,21,2)             -5190.2667     
     12     (1,21,3)             -5190.2656     
     13     (1,21,4)             -5190.2647     
     14     (1,21,5)             -5190.2641     
     15     (1,21,6)             -5190.2638     
     16     (1,21,7)             -5190.2644     
     17     (1,21,8)             -5190.2658     
     18     (1,21,9)             -5190.2672     
 -----------------------------------------------




 HEAD WILL BE SAVED ON UNIT 1016 AT END OF TIME STEP    1, STRESS PERIOD   25


  VOLUME BUDGET FOR ENTIRE MODEL AT END OF TIME STEP    1, STRESS PERIOD  25
  ---------------------------------------------------------------------------------------------------

     CUMULATIVE VOLUME      L**3       RATES FOR THIS TIME STEP      L**3/T          PACKAGE NAME    
     ------------------                 ------------------------                     ----------------

           IN:                                      IN:
           ---                                      ---
              STO-SS =    31211296.0506                STO-SS =       26972.9381     STORAGE                          
              STO-SY =      982857.1458                STO-SY =         895.4448     STORAGE                          
                 WEL =           0.0000                   WEL =           0.0000     WEL-1                            
                RCHA =   133762945.2741                  RCHA =       85500.0000     RCH-1                            
                 CHD =           0.0000                   CHD =           0.0000     CHD-FROM-IBOUND                  

            TOTAL IN =   165957098.4705              TOTAL IN =      113368.3829

          OUT:                                     OUT:
          ----                                     ----
              STO-SS =    91280055.2773                STO-SS =           0.0000     STORAGE                          
              STO-SY =     2781319.9403                STO-SY =           0.0000     STORAGE                          
                 WEL =     6717577.8419                   WEL =       20000.0000     WEL-1                            
                RCHA =           0.0000                  RCHA =           0.0000     RCH-1                            
                 CHD =    65178147.1345                   CHD =       93368.3829     CHD-FROM-IBOUND                  

           TOTAL OUT =   165957100.1940             TOTAL OUT =      113368.3829

            IN - OUT =          -1.7235              IN - OUT =      -1.6731E-06

 PERCENT DISCREPANCY =          -0.00     PERCENT DISCREPANCY =          -0.00




         TIME SUMMARY AT END OF TIME STEP    1 IN STRESS PERIOD   25
                    SECONDS     MINUTES      HOURS       DAYS        YEARS
                    -----------------------------------------------------------
   TIME STEP LENGTH 1.62336E+05  2705.6      45.093      1.8789     5.14413E-03
 STRESS PERIOD TIME 1.62336E+05  2705.6      45.093      1.8789     5.14413E-03
         TOTAL TIME 6.06423E+07 1.01071E+06  16845.      701.88      1.9216    


end timestep


start timestep kper="25" kstp="2" mode="normal"

 UBDSV1 SAVING     FLOW-JA-FACE ON UNIT   1015 AT TIME STEP      2, STRESS PERIOD     25
 UBDSV06 SAVING              WEL IN MODEL MUMODEL          PACKAGE MUMODEL         CONNECTED TO MODEL MUMODEL          PACKAGE WEL-1            ON UNIT   1015 AT TIME STEP      2, STRESS PERIOD     25
 UBDSV06 SAVING             RCHA IN MODEL MUMODEL          PACKAGE MUMODEL         CONNECTED TO MODEL MUMODEL          PACKAGE RCH-1            ON UNIT   1015 AT TIME STEP      2, STRESS PERIOD     25

 WEL PACKAGE (WEL-1) FLOW RATES   PERIOD     25   STEP        2
 -----------------------------------------------
   NUMBER   CELLID                    RATE      
 -----------------------------------------------
     1      (1,5,5)              -20000.000     
     2      (1,11,5)              0.0000000     
     3      (1,5,5)               0.0000000     
 -----------------------------------------------




 CHD PACKAGE (CHD-FROM-IBOUND) FLOW RATES   PERIOD     25   STEP        2
 -----------------------------------------------
   NUMBER   CELLID                    RATE      
 -----------------------------------------------
     1      (1,1,1)              -5189.3884     
     2      (1,1,2)              -5188.9374     
     3      (1,1,3)              -5186.5193     
     4      (1,1,4)              -5177.7425     
     5      (1,1,5)              -5162.5223     
     6      (1,1,6)              -5177.7438     
     7      (1,1,7)              -5186.5218     
     8      (1,1,8)              -5188.9406     
     9      (1,1,9)              -5189.3919     
     10     (1,21,1)             -5189.4755     
     11     (1,21,2)             -5189.4746     
     12     (1,21,3)             -5189.4735     
     13     (1,21,4)             -5189.4726     
     14     (1,21,5)             -5189.4720     
     15     (1,21,6)             -5189.4717     
     16     (1,21,7)             -5189.4723     
     17     (1,21,8)             -5189.4737     
     18     (1,21,9)             -5189.4751     
 -----------------------------------------------




 HEAD WILL BE SAVED ON UNIT 1016 AT END OF TIME STEP    2, STRESS PERIOD   25


  VOLUME BUDGET FOR ENTIRE MODEL AT END OF TIME STEP    2, STRESS PERIOD  25
  ---------------------------------------------------------------------------------------------------

     CUMULATIVE VOLUME      L**3       RATES FOR THIS TIME STEP      L**3/T          PACKAGE NAME    
     ------------------                 ------------------------                     ----------------

           IN:                                      IN:
           ---                                      ---
              STO-SS =    31272077.7518                STO-SS =       26958.1302     STORAGE                          
              STO-SY =      984874.7124                STO-SY =         894.8388     STORAGE                          
                 WEL =           0.0000                   WEL =           0.0000     WEL-1                            
                RCHA =   133955719.6030                  RCHA =       85500.0000     RCH-1                            
                 CHD =           0.0000                   CHD =           0.0000     CHD-FROM-IBOUND                  

            TOTAL IN =   166212672.0672              TOTAL IN =      113352.9689

          OUT:                                     OUT:
          ----                                     ----
              STO-SS =    91280055.2773                STO-SS =           0.0000     STORAGE                          
              STO-SY =     2781319.9403                STO-SY =           0.0000     STORAGE                          
                 WEL =     6762671.2522                   WEL =       20000.0000     WEL-1                            
                RCHA =           0.0000                  RCHA =           0.0000     RCH-1                            
                 CHD =    65388627.3209                   CHD =       93352.9689     CHD-FROM-IBOUND                  

           TOTAL OUT =   166212673.7907             TOTAL OUT =      113352.9689

            IN - OUT =          -1.7235              IN - OUT =      -9.4799E-06

 PERCENT DISCREPANCY =          -0.00     PERCENT DISCREPANCY =          -0.00




         TIME SUMMARY AT END OF TIME STEP    2 IN STRESS PERIOD   25
                    SECONDS     MINUTES      HOURS       DAYS        YEARS
                    -----------------------------------------------------------
   TIME STEP LENGTH 1.94804E+05  3246.7      54.112      2.2547     6.17295E-03
 STRESS PERIOD TIME 3.57140E+05  5952.3      99.206      4.1336     1.13171E-02
         TOTAL TIME 6.08371E+07 1.01395E+06  16899.      704.13      1.9278    


end timestep


start timestep kper="25" kstp="3" mode="normal"

 UBDSV1 SAVING     FLOW-JA-FACE ON UNIT   1015 AT TIME STEP      3, STRESS PERIOD     25
 UBDSV06 SAVING              WEL IN MODEL MUMODEL          PACKAGE MUMODEL         CONNECTED TO MODEL MUMODEL          PACKAGE WEL-1            ON UNIT   1015 AT TIME STEP      3, STRESS PERIOD     25
 UBDSV06 SAVING             RCHA IN MODEL MUMODEL          PACKAGE MUMODEL         CONNECTED TO MODEL MUMODEL          PACKAGE RCH-1            ON UNIT   1015 AT TIME STEP      3, STRESS PERIOD     25

 WEL PACKAGE (WEL-1) FLOW RATES   PERIOD     25   STEP        3
 -----------------------------------------------
   NUMBER   CELLID                    RATE      
 -----------------------------------------------
     1      (1,5,5)              -20000.000     
     2      (1,11,5)              0.0000000     
     3      (1,5,5)               0.0000000     
 -----------------------------------------------




 CHD PACKAGE (CHD-FROM-IBOUND) FLOW RATES   PERIOD     25   STEP        3
 -----------------------------------------------
   NUMBER   CELLID                    RATE      
 -----------------------------------------------
     1      (1,1,1)              -5188.4394     
     2      (1,1,2)              -5187.9713     
     3      (1,1,3)              -5185.4785     
     4      (1,1,4)              -5176.4919     
     5      (1,1,5)              -5161.0225     
     6      (1,1,6)              -5176.4932     
     7      (1,1,7)              -5185.4809     
     8      (1,1,8)              -5187.9745     
     9      (1,1,9)              -5188.4429     
     10     (1,21,1)             -5188.5305     
     11     (1,21,2)             -5188.5296     
     12     (1,21,3)             -5188.5285     
     13     (1,21,4)             -5188.5276     
     14     (1,21,5)             -5188.5269     
     15     (1,21,6)             -5188.5267     
     16     (1,21,7)             -5188.5273     
     17     (1,21,8)             -5188.5287     
     18     (1,21,9)             -5188.5301     
 -----------------------------------------------




 HEAD WILL BE SAVED ON UNIT 1016 AT END OF TIME STEP    3, STRESS PERIOD   25


  VOLUME BUDGET FOR ENTIRE MODEL AT END OF TIME STEP    3, STRESS PERIOD  25
  ---------------------------------------------------------------------------------------------------

     CUMULATIVE VOLUME      L**3       RATES FOR THIS TIME STEP      L**3/T          PACKAGE NAME    
     ------------------                 ------------------------                     ----------------

           IN:                                      IN:
           ---                                      ---
              STO-SS =    31344967.9184                STO-SS =       26940.4355     STORAGE                          
              STO-SY =      987293.8349                STO-SY =         894.1153     STORAGE                          
                 WEL =           0.0000                   WEL =           0.0000     WEL-1                            
                RCHA =   134187048.7977                  RCHA =       85500.0000     RCH-1                            
                 CHD =           0.0000                   CHD =           0.0000     CHD-FROM-IBOUND                  

            TOTAL IN =   166519310.5510              TOTAL IN =      113334.5508

          OUT:                                     OUT:
          ----                                     ----
              STO-SS =    91280055.2773                STO-SS =           0.0000     STORAGE                          
              STO-SY =     2781319.9403                STO-SY =           0.0000     STORAGE                          
                 WEL =     6816783.3445                   WEL =       20000.0000     WEL-1                            
                RCHA =           0.0000                  RCHA =           0.0000     RCH-1                            
                 CHD =    65641153.7124                   CHD =       93334.5508     CHD-FROM-IBOUND                  

           TOTAL OUT =   166519312.2745             TOTAL OUT =      113334.5508

            IN - OUT =          -1.7236              IN - OUT =      -1.5513E-05

 PERCENT DISCREPANCY =          -0.00     PERCENT DISCREPANCY =          -0.00




         TIME SUMMARY AT END OF TIME STEP    3 IN STRESS PERIOD   25
                    SECONDS     MINUTES      HOURS       DAYS        YEARS
                    -----------------------------------------------------------
   TIME STEP LENGTH 2.33764E+05  3896.1      64.935      2.7056     7.40754E-03
 STRESS PERIOD TIME 5.90904E+05  9848.4      164.14      6.8392     1.87246E-02
         TOTAL TIME 6.10709E+07 1.01785E+06  16964.      706.84      1.9352    


end timestep


start timestep kper="25" kstp="4" mode="normal"

 UBDSV1 SAVING     FLOW-JA-FACE ON UNIT   1015 AT TIME STEP      4, STRESS PERIOD     25
 UBDSV06 SAVING              WEL IN MODEL MUMODEL          PACKAGE MUMODEL         CONNECTED TO MODEL MUMODEL          PACKAGE WEL-1            ON UNIT   1015 AT TIME STEP      4, STRESS PERIOD     25
 UBDSV06 SAVING             RCHA IN MODEL MUMODEL          PACKAGE MUMODEL         CONNECTED TO MODEL MUMODEL          PACKAGE RCH-1            ON UNIT   1015 AT TIME STEP      4, STRESS PERIOD     25

 WEL PACKAGE (WEL-1) FLOW RATES   PERIOD     25   STEP        4
 -----------------------------------------------
   NUMBER   CELLID                    RATE      
 -----------------------------------------------
     1      (1,5,5)              -20000.000     
     2      (1,11,5)              0.0000000     
     3      (1,5,5)               0.0000000     
 -----------------------------------------------




 CHD PACKAGE (CHD-FROM-IBOUND) FLOW RATES   PERIOD     25   STEP        4
 -----------------------------------------------
   NUMBER   CELLID                    RATE      
 -----------------------------------------------
     1      (1,1,1)              -5187.3081     
     2      (1,1,2)              -5186.8190     
     3      (1,1,3)              -5184.2342     
     4      (1,1,4)              -5174.9923     
     5      (1,1,5)              -5159.2226     
     6      (1,1,6)              -5174.9936     
     7      (1,1,7)              -5184.2367     
     8      (1,1,8)              -5186.8222     
     9      (1,1,9)              -5187.3116     
     10     (1,21,1)             -5187.4043     
     11     (1,21,2)             -5187.4034     
     12     (1,21,3)             -5187.4023     
     13     (1,21,4)             -5187.4014     
     14     (1,21,5)             -5187.4008     
     15     (1,21,6)             -5187.4006     
     16     (1,21,7)             -5187.4011     
     17     (1,21,8)             -5187.4025     
     18     (1,21,9)             -5187.4039     
 -----------------------------------------------




 HEAD WILL BE SAVED ON UNIT 1016 AT END OF TIME STEP    4, STRESS PERIOD   25


  VOLUME BUDGET FOR ENTIRE MODEL AT END OF TIME STEP    4, STRESS PERIOD  25
  ---------------------------------------------------------------------------------------------------

     CUMULATIVE VOLUME      L**3       RATES FOR THIS TIME STEP      L**3/T          PACKAGE NAME    
     ------------------                 ------------------------                     ----------------

           IN:                                      IN:
           ---                                      ---
              STO-SS =    31432367.5235                STO-SS =       26919.3081     STORAGE                          
              STO-SY =      990193.9810                STO-SY =         893.2526     STORAGE                          
                 WEL =           0.0000                   WEL =           0.0000     WEL-1                            
                RCHA =   134464643.8313                  RCHA =       85500.0000     RCH-1                            
                 CHD =           0.0000                   CHD =           0.0000     CHD-FROM-IBOUND                  

            TOTAL IN =   166887205.3358              TOTAL IN =      113312.5607

          OUT:                                     OUT:
          ----                                     ----
              STO-SS =    91280055.2773                STO-SS =           0.0000     STORAGE                          
              STO-SY =     2781319.9403                STO-SY =           0.0000     STORAGE                          
                 WEL =     6881717.8553                   WEL =       20000.0000     WEL-1                            
                RCHA =           0.0000                  RCHA =           0.0000     RCH-1                            
                 CHD =    65944113.9865                   CHD =       93312.5607     CHD-FROM-IBOUND                  

           TOTAL OUT =   166887207.0594             TOTAL OUT =      113312.5607

            IN - OUT =          -1.7236              IN - OUT =      -2.0344E-05

 PERCENT DISCREPANCY =          -0.00     PERCENT DISCREPANCY =          -0.00




         TIME SUMMARY AT END OF TIME STEP    4 IN STRESS PERIOD   25
                    SECONDS     MINUTES      HOURS       DAYS        YEARS
                    -----------------------------------------------------------
   TIME STEP LENGTH 2.80517E+05  4675.3      77.921      3.2467     8.88905E-03
 STRESS PERIOD TIME 8.71421E+05  14524.      242.06      10.086     2.76137E-02
         TOTAL TIME 6.13514E+07 1.02252E+06  17042.      710.09      1.9441    


end timestep


start timestep kper="25" kstp="5" mode="normal"

 UBDSV1 SAVING     FLOW-JA-FACE ON UNIT   1015 AT TIME STEP      5, STRESS PERIOD     25
 UBDSV06 SAVING              WEL IN MODEL MUMODEL          PACKAGE MUMODEL         CONNECTED TO MODEL MUMODEL          PACKAGE WEL-1            ON UNIT   1015 AT TIME STEP      5, STRESS PERIOD     25
 UBDSV06 SAVING             RCHA IN MODEL MUMODEL          PACKAGE MUMODEL         CONNECTED TO MODEL MUMODEL          PACKAGE RCH-1            ON UNIT   1015 AT TIME STEP      5, STRESS PERIOD     25

 WEL PACKAGE (WEL-1) FLOW RATES   PERIOD     25   STEP        5
 -----------------------------------------------
   NUMBER   CELLID                    RATE      
 -----------------------------------------------
     1      (1,5,5)              -20000.000     
     2      (1,11,5)              0.0000000     
     3      (1,5,5)               0.0000000     
 -----------------------------------------------




 CHD PACKAGE (CHD-FROM-IBOUND) FLOW RATES   PERIOD     25   STEP        5
 -----------------------------------------------
   NUMBER   CELLID                    RATE      
 -----------------------------------------------
     1      (1,1,1)              -5185.9615     
     2      (1,1,2)              -5185.4462     
     3      (1,1,3)              -5182.7479     
     4      (1,1,4)              -5173.1943     
     5      (1,1,5)              -5157.0625     
     6      (1,1,6)              -5173.1956     
     7      (1,1,7)              -5182.7503     
     8      (1,1,8)              -5185.4493     
     9      (1,1,9)              -5185.9650     
     10     (1,21,1)             -5186.0640     
     11     (1,21,2)             -5186.0632     
     12     (1,21,3)             -5186.0621     
     13     (1,21,4)             -5186.0612     
     14     (1,21,5)             -5186.0605     
     15     (1,21,6)             -5186.0603     
     16     (1,21,7)             -5186.0609     
     17     (1,21,8)             -5186.0623     
     18     (1,21,9)             -5186.0636     
 -----------------------------------------------




 HEAD WILL BE SAVED ON UNIT 1016 AT END OF TIME STEP    5, STRESS PERIOD   25


  VOLUME BUDGET FOR ENTIRE MODEL AT END OF TIME STEP    5, STRESS PERIOD  25
  ---------------------------------------------------------------------------------------------------

     CUMULATIVE VOLUME      L**3       RATES FOR THIS TIME STEP      L**3/T          PACKAGE NAME    
     ------------------                 ------------------------                     ----------------

           IN:                                      IN:
           ---                                      ---
              STO-SS =    31537148.8594                STO-SS =       26894.1057     STORAGE                          
              STO-SY =      993670.1529                STO-SY =         892.2251     STORAGE                          
                 WEL =           0.0000                   WEL =           0.0000     WEL-1                            
                RCHA =   134797757.8717                  RCHA =       85500.0000     RCH-1                            
                 CHD =           0.0000                   CHD =           0.0000     CHD-FROM-IBOUND                  

            TOTAL IN =   167328576.8840              TOTAL IN =      113286.3308

          OUT:                                     OUT:
          ----                                     ----
              STO-SS =    91280055.2773                STO-SS =           0.0000     STORAGE                          
              STO-SY =     2781319.9403                STO-SY =           0.0000     STORAGE                          
                 WEL =     6959639.2682                   WEL =       20000.0000     WEL-1                            
                RCHA =           0.0000                  RCHA =           0.0000     RCH-1                            
                 CHD =    66307564.1219                   CHD =       93286.3308     CHD-FROM-IBOUND                  

           TOTAL OUT =   167328578.6078             TOTAL OUT =      113286.3308

            IN - OUT =          -1.7237              IN - OUT =      -3.2791E-05

 PERCENT DISCREPANCY =          -0.00     PERCENT DISCREPANCY =          -0.00




         TIME SUMMARY AT END OF TIME STEP    5 IN STRESS PERIOD   25
                    SECONDS     MINUTES      HOURS       DAYS        YEARS
                    -----------------------------------------------------------
   TIME STEP LENGTH 3.36621E+05  5610.3      93.506      3.8961     1.06669E-02
 STRESS PERIOD TIME 1.20804E+06  20134.      335.57      13.982     3.82805E-02
         TOTAL TIME 6.16880E+07 1.02813E+06  17136.      713.98      1.9548    


end timestep


start timestep kper="25" kstp="6" mode="normal"

 UBDSV1 SAVING     FLOW-JA-FACE ON UNIT   1015 AT TIME STEP      6, STRESS PERIOD     25
 UBDSV06 SAVING              WEL IN MODEL MUMODEL          PACKAGE MUMODEL         CONNECTED TO MODEL MUMODEL          PACKAGE WEL-1            ON UNIT   1015 AT TIME STEP      6, STRESS PERIOD     25
 UBDSV06 SAVING             RCHA IN MODEL MUMODEL          PACKAGE MUMODEL         CONNECTED TO MODEL MUMODEL          PACKAGE RCH-1            ON UNIT   1015 AT TIME STEP      6, STRESS PERIOD     25

 WEL PACKAGE (WEL-1) FLOW RATES   PERIOD     25   STEP        6
 -----------------------------------------------
   NUMBER   CELLID                    RATE      
 -----------------------------------------------
     1      (1,5,5)              -20000.000     
     2      (1,11,5)              0.0000000     
     3      (1,5,5)               0.0000000     
 -----------------------------------------------




 CHD PACKAGE (CHD-FROM-IBOUND) FLOW RATES   PERIOD     25   STEP        6
 -----------------------------------------------
   NUMBER   CELLID                    RATE      
 -----------------------------------------------
     1      (1,1,1)              -5184.3610     
     2      (1,1,2)              -5183.8127     
     3      (1,1,3)              -5180.9738     
     4      (1,1,4)              -5171.0386     
     5      (1,1,5)              -5154.4698     
     6      (1,1,6)              -5171.0399     
     7      (1,1,7)              -5180.9762     
     8      (1,1,8)              -5183.8158     
     9      (1,1,9)              -5184.3644     
     10     (1,21,1)             -5184.4716     
     11     (1,21,2)             -5184.4707     
     12     (1,21,3)             -5184.4696     
     13     (1,21,4)             -5184.4687     
     14     (1,21,5)             -5184.4681     
     15     (1,21,6)             -5184.4679     
     16     (1,21,7)             -5184.4685     
     17     (1,21,8)             -5184.4698     
     18     (1,21,9)             -5184.4712     
 -----------------------------------------------




 HEAD WILL BE SAVED ON UNIT 1016 AT END OF TIME STEP    6, STRESS PERIOD   25


  VOLUME BUDGET FOR ENTIRE MODEL AT END OF TIME STEP    6, STRESS PERIOD  25
  ---------------------------------------------------------------------------------------------------

     CUMULATIVE VOLUME      L**3       RATES FOR THIS TIME STEP      L**3/T          PACKAGE NAME    
     ------------------                 ------------------------                     ----------------

           IN:                                      IN:
           ---                                      ---
              STO-SS =    31662746.0622                STO-SS =       26864.0754     STORAGE                          
              STO-SY =      997835.8449                STO-SY =         891.0028     STORAGE                          
                 WEL =           0.0000                   WEL =           0.0000     WEL-1                            
                RCHA =   135197494.7201                  RCHA =       85500.0000     RCH-1                            
                 CHD =           0.0000                   CHD =           0.0000     CHD-FROM-IBOUND                  

            TOTAL IN =   167858076.6272              TOTAL IN =      113255.0782

          OUT:                                     OUT:
          ----                                     ----
              STO-SS =    91280055.2773                STO-SS =           0.0000     STORAGE                          
              STO-SY =     2781319.9403                STO-SY =           0.0000     STORAGE                          
                 WEL =     7053144.9638                   WEL =       20000.0000     WEL-1                            
                RCHA =           0.0000                  RCHA =           0.0000     RCH-1                            
                 CHD =    66743558.1698                   CHD =       93255.0783     CHD-FROM-IBOUND                  

           TOTAL OUT =   167858078.3512             TOTAL OUT =      113255.0783

            IN - OUT =          -1.7240              IN - OUT =      -5.3836E-05

 PERCENT DISCREPANCY =          -0.00     PERCENT DISCREPANCY =          -0.00




         TIME SUMMARY AT END OF TIME STEP    6 IN STRESS PERIOD   25
                    SECONDS     MINUTES      HOURS       DAYS        YEARS
                    -----------------------------------------------------------
   TIME STEP LENGTH 4.03945E+05  6732.4      112.21      4.6753     1.28002E-02
 STRESS PERIOD TIME 1.61199E+06  26866.      447.77      18.657     5.10808E-02
         TOTAL TIME 6.20920E+07 1.03487E+06  17248.      718.66      1.9676    


end timestep


start timestep kper="25" kstp="7" mode="normal"

 UBDSV1 SAVING     FLOW-JA-FACE ON UNIT   1015 AT TIME STEP      7, STRESS PERIOD     25
 UBDSV06 SAVING              WEL IN MODEL MUMODEL          PACKAGE MUMODEL         CONNECTED TO MODEL MUMODEL          PACKAGE WEL-1            ON UNIT   1015 AT TIME STEP      7, STRESS PERIOD     25
 UBDSV06 SAVING             RCHA IN MODEL MUMODEL          PACKAGE MUMODEL         CONNECTED TO MODEL MUMODEL          PACKAGE RCH-1            ON UNIT   1015 AT TIME STEP      7, STRESS PERIOD     25

 WEL PACKAGE (WEL-1) FLOW RATES   PERIOD     25   STEP        7
 -----------------------------------------------
   NUMBER   CELLID                    RATE      
 -----------------------------------------------
     1      (1,5,5)              -20000.000     
     2      (1,11,5)              0.0000000     
     3      (1,5,5)               0.0000000     
 -----------------------------------------------




 CHD PACKAGE (CHD-FROM-IBOUND) FLOW RATES   PERIOD     25   STEP        7
 -----------------------------------------------
   NUMBER   CELLID                    RATE      
 -----------------------------------------------
     1      (1,1,1)              -5182.4620     
     2      (1,1,2)              -5181.8720     
     3      (1,1,3)              -5178.8578     
     4      (1,1,4)              -5168.4541     
     5      (1,1,5)              -5151.3578     
     6      (1,1,6)              -5168.4554     
     7      (1,1,7)              -5178.8602     
     8      (1,1,8)              -5181.8751     
     9      (1,1,9)              -5182.4654     
     10     (1,21,1)             -5182.5830     
     11     (1,21,2)             -5182.5822     
     12     (1,21,3)             -5182.5811     
     13     (1,21,4)             -5182.5802     
     14     (1,21,5)             -5182.5796     
     15     (1,21,6)             -5182.5794     
     16     (1,21,7)             -5182.5800     
     17     (1,21,8)             -5182.5814     
     18     (1,21,9)             -5182.5827     
 -----------------------------------------------




 HEAD WILL BE SAVED ON UNIT 1016 AT END OF TIME STEP    7, STRESS PERIOD   25


  VOLUME BUDGET FOR ENTIRE MODEL AT END OF TIME STEP    7, STRESS PERIOD  25
  ---------------------------------------------------------------------------------------------------

     CUMULATIVE VOLUME      L**3       RATES FOR THIS TIME STEP      L**3/T          PACKAGE NAME    
     ------------------                 ------------------------                     ----------------

           IN:                                      IN:
           ---                                      ---
              STO-SS =    31813262.2057                STO-SS =       26828.3379     STORAGE                          
              STO-SY =     1002826.5321                STO-SY =         889.5514     STORAGE                          
                 WEL =           0.0000                   WEL =           0.0000     WEL-1                            
                RCHA =   135677178.9383                  RCHA =       85500.0000     RCH-1                            
                 CHD =           0.0000                   CHD =           0.0000     CHD-FROM-IBOUND                  

            TOTAL IN =   168493267.6761              TOTAL IN =      113217.8892

          OUT:                                     OUT:
          ----                                     ----
              STO-SS =    91280055.2773                STO-SS =           0.0000     STORAGE                          
              STO-SY =     2781319.9403                STO-SY =           0.0000     STORAGE                          
                 WEL =     7165351.7984                   WEL =       20000.0000     WEL-1                            
                RCHA =           0.0000                  RCHA =           0.0000     RCH-1                            
                 CHD =    67266542.3846                   CHD =       93217.8893     CHD-FROM-IBOUND                  

           TOTAL OUT =   168493269.4006             TOTAL OUT =      113217.8893

            IN - OUT =          -1.7245              IN - OUT =      -8.5524E-05

 PERCENT DISCREPANCY =          -0.00     PERCENT DISCREPANCY =          -0.00




         TIME SUMMARY AT END OF TIME STEP    7 IN STRESS PERIOD   25
                    SECONDS     MINUTES      HOURS       DAYS        YEARS
                    -----------------------------------------------------------
   TIME STEP LENGTH 4.84734E+05  8078.9      134.65      5.6103     1.53603E-02
 STRESS PERIOD TIME 2.09672E+06  34945.      582.42      24.268     6.64410E-02
         TOTAL TIME 6.25767E+07 1.04295E+06  17382.      724.27      1.9829    


end timestep


start timestep kper="25" kstp="8" mode="normal"

 UBDSV1 SAVING     FLOW-JA-FACE ON UNIT   1015 AT TIME STEP      8, STRESS PERIOD     25
 UBDSV06 SAVING              WEL IN MODEL MUMODEL          PACKAGE MUMODEL         CONNECTED TO MODEL MUMODEL          PACKAGE WEL-1            ON UNIT   1015 AT TIME STEP      8, STRESS PERIOD     25
 UBDSV06 SAVING             RCHA IN MODEL MUMODEL          PACKAGE MUMODEL         CONNECTED TO MODEL MUMODEL          PACKAGE RCH-1            ON UNIT   1015 AT TIME STEP      8, STRESS PERIOD     25

 WEL PACKAGE (WEL-1) FLOW RATES   PERIOD     25   STEP        8
 -----------------------------------------------
   NUMBER   CELLID                    RATE      
 -----------------------------------------------
     1      (1,5,5)              -20000.000     
     2      (1,11,5)              0.0000000     
     3      (1,5,5)               0.0000000     
 -----------------------------------------------




 CHD PACKAGE (CHD-FROM-IBOUND) FLOW RATES   PERIOD     25   STEP        8
 -----------------------------------------------
   NUMBER   CELLID                    RATE      
 -----------------------------------------------
     1      (1,1,1)              -5180.2137     
     2      (1,1,2)              -5179.5706     
     3      (1,1,3)              -5176.3364     
     4      (1,1,4)              -5165.3554     
     5      (1,1,5)              -5147.6220     
     6      (1,1,6)              -5165.3566     
     7      (1,1,7)              -5176.3387     
     8      (1,1,8)              -5179.5736     
     9      (1,1,9)              -5180.2171     
     10     (1,21,1)             -5180.3484     
     11     (1,21,2)             -5180.3476     
     12     (1,21,3)             -5180.3465     
     13     (1,21,4)             -5180.3456     
     14     (1,21,5)             -5180.3450     
     15     (1,21,6)             -5180.3449     
     16     (1,21,7)             -5180.3454     
     17     (1,21,8)             -5180.3468     
     18     (1,21,9)             -5180.3481     
 -----------------------------------------------




 HEAD WILL BE SAVED ON UNIT 1016 AT END OF TIME STEP    8, STRESS PERIOD   25


  VOLUME BUDGET FOR ENTIRE MODEL AT END OF TIME STEP    8, STRESS PERIOD  25
  ---------------------------------------------------------------------------------------------------

     CUMULATIVE VOLUME      L**3       RATES FOR THIS TIME STEP      L**3/T          PACKAGE NAME    
     ------------------                 ------------------------                     ----------------

           IN:                                      IN:
           ---                                      ---
              STO-SS =    31993595.6763                STO-SS =       26785.8714     STORAGE                          
              STO-SY =     1008803.7741                STO-SY =         887.8309     STORAGE                          
                 WEL =           0.0000                   WEL =           0.0000     WEL-1                            
                RCHA =   136252800.0000                  RCHA =       85500.0000     RCH-1                            
                 CHD =           0.0000                   CHD =           0.0000     CHD-FROM-IBOUND                  

            TOTAL IN =   169255199.4504              TOTAL IN =      113173.7023

          OUT:                                     OUT:
          ----                                     ----
              STO-SS =    91280055.2773                STO-SS =           0.0000     STORAGE                          
              STO-SY =     2781319.9403                STO-SY =           0.0000     STORAGE                          
                 WEL =     7300000.0000                   WEL =       20000.0000     WEL-1                            
                RCHA =           0.0000                  RCHA =           0.0000     RCH-1                            
                 CHD =    67893825.9574                   CHD =       93173.7024     CHD-FROM-IBOUND                  

           TOTAL OUT =   169255201.1751             TOTAL OUT =      113173.7024

            IN - OUT =          -1.7246              IN - OUT =      -2.2286E-05

 PERCENT DISCREPANCY =          -0.00     PERCENT DISCREPANCY =          -0.00




         TIME SUMMARY AT END OF TIME STEP    8 IN STRESS PERIOD   25
                    SECONDS     MINUTES      HOURS       DAYS        YEARS
                    -----------------------------------------------------------
   TIME STEP LENGTH 5.81680E+05  9694.7      161.58      6.7324     1.84323E-02
 STRESS PERIOD TIME 2.67840E+06  44640.      744.00      31.000     8.48734E-02
         TOTAL TIME 6.31584E+07 1.05264E+06  17544.      731.00      2.0014    


end timestep

