                                   MODFLOW 6
                U.S. GEOLOGICAL SURVEY MODULAR HYDROLOGIC MODEL
                          GROUNDWATER FLOW MODEL (GWF)
                            VERSION 6.4.2 06/28/2023

   MODFLOW 6 compiled Jul 05 2023 20:31:54 with Intel(R) Fortran Intel(R) 64
   Compiler Classic for applications running on Intel(R) 64, Version 2021.7.0
                             Build 20220726_000000

This software has been approved for release by the U.S. Geological 
Survey (USGS). Although the software has been subjected to rigorous 
review, the USGS reserves the right to update the software as needed 
pursuant to further analysis and review. No warranty, expressed or 
implied, is made by the USGS or the U.S. Government as to the 
functionality of the software and related material nor shall the 
fact of release constitute any such warranty. Furthermore, the 
software is released on condition that neither the USGS nor the U.S. 
Government shall be held liable for any damages resulting from its 
authorized or unauthorized use. Also refer to the USGS Water 
Resources Software User Rights Notice for complete use, copyright, 
and distribution information.


As a work of the United States Government, this USGS product is 
in the public domain within the United States. You can copy, 
modify, distribute, and perform the work, even for commercial 
purposes, all without asking permission. Additionally, USGS 
waives copyright and related rights in the work worldwide 
through CC0 1.0 Universal Public Domain Dedication 
(https://creativecommons.org/publicdomain/zero/1.0/).

The following GNU Lesser General Public License (LGPL) libraries
are used in this USGS product:

    SPARSKIT version 2.0
      ilut, luson, and qsplit 
      (https://www-users.cse.umn.edu/~saad/software/SPARSKIT/)

    RCM - Reverse Cuthill McKee Ordering
      (https://people.math.sc.edu/Burkardt/f_src/rcm/rcm.html)

    BLAS - Basic Linear Algebra Subprograms Level 1
      (https://people.math.sc.edu/Burkardt/f_src/blas1_d/blas1_d.html)

    SPARSEKIT - Sparse Matrix Utility Package
      amux, dperm, dvperm, rperm, and cperm
      (https://people.sc.fsu.edu/~jburkardt/f77_src/sparsekit/sparsekit.html)

The following BSD-3 License libraries are used in this USGS product:

    Modern Fortran DAG Library
      Copyright (c) 2018, Jacob Williams
      All rights reserved.
      (https://github.com/jacobwilliams/daglib)

MODFLOW 6 compiler options: /O2 /heap-arrays:0 /fpe:0 /traceback /nologo /fpp
/c /module:win64\mod_mf6\ /object:win64\obj_mf6\

System command used to initiate simulation:
C:\A\envs\pyclass\Scripts\mf6.exe

MODFLOW was compiled using uniform precision.

Real Variables
  KIND: 8
  TINY (smallest non-zero value):    2.225074-308
  HUGE (largest value):    1.797693+308
  PRECISION: 15
  SIZE IN BITS: 64

Integer Variables
  KIND: 4
  HUGE (largest value): 2147483647
  SIZE IN BITS: 32

Long Integer Variables
  KIND: 8
  HUGE (largest value): 9223372036854775807
  SIZE IN BITS: 64

Logical Variables
  KIND: 4
  SIZE IN BITS: 32
 
 NAMEFILE OPTIONS:
 END NAMEFILE OPTIONS:

 DIS -- STRUCTURED GRID DISCRETIZATION PACKAGE, VERSION 2 : 3/27/2014 - INPUT READ FROM MEMPATH: __INPUT__/MUMODEL/DIS                             


 NPF -- NODE PROPERTY FLOW PACKAGE, VERSION 1, 3/30/2015 INPUT READ FROM MEMPATH: __INPUT__/MUMODEL/NPF                             

 Setting Discretization Options
    Model length unit [0=UND, 1=FEET, 2=METERS, 3=CENTIMETERS] set as 0
 End Setting Discretization Options

 Setting Discretization Dimensions
    NLAY = 1
    NROW = 21
    NCOL = 9
 End Setting Discretization Dimensions

 Setting Discretization Griddata
    DELR set from input file
    DELC set from input file
    TOP set from input file
    BOTM set from input file
 End Setting Discretization Griddata

 Setting NPF Options
    Cell-by-cell flow information will be saved to binary file whenever ICBCFL is not zero.
    Vertical flow will be adjusted for perched conditions.
    Vertical conductance varies with water table.
    Vertical conductance accounts for dewatered portion of an underlying cell.
 End Setting NPF Options

 Setting NPF Griddata
    ICELLTYPE set from input file
    K set from input file
    K33 not provided.  Setting K33 = K.
    K22 not provided.  Setting K22 = K.
 End Setting NPF Griddata


 WEL   -- WEL PACKAGE, VERSION 8, 2/22/2014 INPUT READ FROM UNIT 1008
 # File generated by Flopy version 3.5.0 on 02/25/2024 at 12:29:55.

 PROCESSING WEL OPTIONS
    AUXILIARY WEL VARIABLE: IFACE           
    LISTS OF WEL CELLS WILL BE PRINTED.
    WEL FLOWS WILL BE PRINTED TO LISTING FILE.
    FLOWS WILL BE SAVED TO BUDGET FILE SPECIFIED IN OUTPUT CONTROL
 END OF WEL OPTIONS

 PROCESSING WEL DIMENSIONS
    MAXBOUND =       3
 END OF WEL DIMENSIONS

 RCH   -- RCH PACKAGE, VERSION 8, 2/22/2014 INPUT READ FROM UNIT 1009
 # File generated by Flopy version 3.5.0 on 02/25/2024 at 12:29:51.

 PROCESSING RCH OPTIONS
    RECHARGE INPUT WILL BE READ AS ARRAY(S).
    FLOWS WILL BE SAVED TO BUDGET FILE SPECIFIED IN OUTPUT CONTROL
 END OF RCHA OPTIONS

 CHD   -- CHD PACKAGE, VERSION 8, 2/22/2014 INPUT READ FROM UNIT 1010
 # File generated by Flopy version 3.5.0 on 02/25/2024 at 12:29:34.

 PROCESSING CHD OPTIONS
    LISTS OF CHD CELLS WILL BE PRINTED.
    CHD FLOWS WILL BE PRINTED TO LISTING FILE.
 END OF CHD OPTIONS

 PROCESSING CHD DIMENSIONS
    MAXBOUND =      18
 END OF CHD DIMENSIONS

 IC -- INITIAL CONDITIONS PACKAGE, VERSION 8, 3/28/2015 INPUT READ FROM UNIT 1006
 # File generated by Flopy version 3.5.0 on 02/25/2024 at 12:29:34.
 PROCESSING GRIDDATA

     INITIAL HEAD FOR LAYER 1

               1          2          3          4          5          6          7          8          9
 .......................................................................................................
   1   1.000E+03  1.000E+03  1.000E+03  1.000E+03  1.000E+03  1.000E+03  1.000E+03  1.000E+03  1.000E+03
   2   1.100E+03  1.100E+03  1.100E+03  1.100E+03  1.100E+03  1.100E+03  1.100E+03  1.100E+03  1.100E+03
   3   1.100E+03  1.100E+03  1.100E+03  1.100E+03  1.100E+03  1.100E+03  1.100E+03  1.100E+03  1.100E+03
   4   1.100E+03  1.100E+03  1.100E+03  1.100E+03  1.100E+03  1.100E+03  1.100E+03  1.100E+03  1.100E+03
   5   1.100E+03  1.100E+03  1.100E+03  1.100E+03  1.100E+03  1.100E+03  1.100E+03  1.100E+03  1.100E+03
   6   1.100E+03  1.100E+03  1.100E+03  1.100E+03  1.100E+03  1.100E+03  1.100E+03  1.100E+03  1.100E+03
   7   1.100E+03  1.100E+03  1.100E+03  1.100E+03  1.100E+03  1.100E+03  1.100E+03  1.100E+03  1.100E+03
   8   1.100E+03  1.100E+03  1.100E+03  1.100E+03  1.100E+03  1.100E+03  1.100E+03  1.100E+03  1.100E+03
   9   1.100E+03  1.100E+03  1.100E+03  1.100E+03  1.100E+03  1.100E+03  1.100E+03  1.100E+03  1.100E+03
  10   1.100E+03  1.100E+03  1.100E+03  1.100E+03  1.100E+03  1.100E+03  1.100E+03  1.100E+03  1.100E+03
  11   1.100E+03  1.100E+03  1.100E+03  1.100E+03  1.100E+03  1.100E+03  1.100E+03  1.100E+03  1.100E+03
  12   1.100E+03  1.100E+03  1.100E+03  1.100E+03  1.100E+03  1.100E+03  1.100E+03  1.100E+03  1.100E+03
  13   1.100E+03  1.100E+03  1.100E+03  1.100E+03  1.100E+03  1.100E+03  1.100E+03  1.100E+03  1.100E+03
  14   1.100E+03  1.100E+03  1.100E+03  1.100E+03  1.100E+03  1.100E+03  1.100E+03  1.100E+03  1.100E+03
  15   1.100E+03  1.100E+03  1.100E+03  1.100E+03  1.100E+03  1.100E+03  1.100E+03  1.100E+03  1.100E+03
  16   1.100E+03  1.100E+03  1.100E+03  1.100E+03  1.100E+03  1.100E+03  1.100E+03  1.100E+03  1.100E+03
  17   1.100E+03  1.100E+03  1.100E+03  1.100E+03  1.100E+03  1.100E+03  1.100E+03  1.100E+03  1.100E+03
  18   1.100E+03  1.100E+03  1.100E+03  1.100E+03  1.100E+03  1.100E+03  1.100E+03  1.100E+03  1.100E+03
  19   1.100E+03  1.100E+03  1.100E+03  1.100E+03  1.100E+03  1.100E+03  1.100E+03  1.100E+03  1.100E+03
  20   1.100E+03  1.100E+03  1.100E+03  1.100E+03  1.100E+03  1.100E+03  1.100E+03  1.100E+03  1.100E+03
  21   1.000E+03  1.000E+03  1.000E+03  1.000E+03  1.000E+03  1.000E+03  1.000E+03  1.000E+03  1.000E+03
 END PROCESSING GRIDDATA

 STO -- STORAGE PACKAGE, VERSION 1, 5/19/2014 INPUT READ FROM UNIT 1005


 # File generated by Flopy version 3.5.0 on 02/25/2024 at 12:29:34.
 PROCESSING STORAGE OPTIONS
 END OF STORAGE OPTIONS
 PROCESSING GRIDDATA

                 ICONVERT = 1 FOR LAYER 1

         SPECIFIC STORAGE =  0.1000000     FOR LAYER 1

           SPECIFIC YIELD =  0.1000000     FOR LAYER 1
 END PROCESSING GRIDDATA
    BINARY GRID INFORMATION WILL BE WRITTEN TO:
      UNIT NUMBER: 1014
      FILE NAME: mumodel.dis.grb

 OPENED mumodel.dis.grb
 FILE TYPE:DATA(BINARY)   UNIT 1014   STATUS:REPLACE             
 FORMAT:UNFORMATTED            ACCESS:STREAM              
 ACTION:READWRITE           

      THE LAST TIME STEP WILL BE PRINTED
      THE LAST TIME STEP WILL BE PRINTED
 # File generated by Flopy version 3.5.0 on 02/25/2024 at 12:29:34.

 PROCESSING OC OPTIONS

    BUDGET INFORMATION WILL BE WRITTEN TO:
      UNIT NUMBER: 1015
      FILE NAME: mumodel_7-2b.cbb

 OPENED mumodel_7-2b.cbb
 FILE TYPE:DATA(BINARY)   UNIT 1015   STATUS:REPLACE             
 FORMAT:UNFORMATTED            ACCESS:STREAM              
 ACTION:READWRITE           

    HEAD INFORMATION WILL BE WRITTEN TO:
      UNIT NUMBER: 1016
      FILE NAME: mumodel_7-2b.hds

 OPENED mumodel_7-2b.hds
 FILE TYPE:DATA(BINARY)   UNIT 1016   STATUS:REPLACE             
 FORMAT:UNFORMATTED            ACCESS:STREAM              
 ACTION:READWRITE           

 END OF OC OPTIONS

start timestep kper="1" kstp="1" mode="normal"


 BEGIN READING OUTPUT CONTROL FOR STRESS PERIOD 1
      ALL TIME STEPS WILL BE SAVED
      ALL TIME STEPS WILL BE SAVED
      ALL TIME STEPS WILL BE PRINTED

 END READING OUTPUT CONTROL FOR STRESS PERIOD 1


 PROCESSING STORAGE PERIOD DATA
 END PROCESSING STORAGE PERIOD DATA


 STRESS PERIOD 1 IS STEADY-STATE

 --------------------------------------------------------------------
  WEL NO.    LAYER    ROW     COL     STRESS RATE         IFACE      
 --------------------------------------------------------------------
     1         1       5       5     0.00000000       0.00000000     
     2         1      11       5     0.00000000       0.00000000     
     3         1       5       5     0.00000000       0.00000000     
 --------------------------------------------------------------------


 ---------------------------------------------------
  CHD NO.    LAYER    ROW     COL         HEAD      
 ---------------------------------------------------
     1         1       1       1     1000.00000     
     2         1       1       2     1000.00000     
     3         1       1       3     1000.00000     
     4         1       1       4     1000.00000     
     5         1       1       5     1000.00000     
     6         1       1       6     1000.00000     
     7         1       1       7     1000.00000     
     8         1       1       8     1000.00000     
     9         1       1       9     1000.00000     
     10        1      21       1     1000.00000     
     11        1      21       2     1000.00000     
     12        1      21       3     1000.00000     
     13        1      21       4     1000.00000     
     14        1      21       5     1000.00000     
     15        1      21       6     1000.00000     
     16        1      21       7     1000.00000     
     17        1      21       8     1000.00000     
     18        1      21       9     1000.00000     
 ---------------------------------------------------


 UBDSV1 SAVING     FLOW-JA-FACE ON UNIT   1015 AT TIME STEP      1, STRESS PERIOD      1
 UBDSV06 SAVING              WEL IN MODEL MUMODEL          PACKAGE MUMODEL         CONNECTED TO MODEL MUMODEL          PACKAGE WEL-1            ON UNIT   1015 AT TIME STEP      1, STRESS PERIOD      1
 UBDSV06 SAVING             RCHA IN MODEL MUMODEL          PACKAGE MUMODEL         CONNECTED TO MODEL MUMODEL          PACKAGE RCH-1            ON UNIT   1015 AT TIME STEP      1, STRESS PERIOD      1

 WEL PACKAGE (WEL-1) FLOW RATES   PERIOD      1   STEP        1
 -----------------------------------------------
   NUMBER   CELLID                    RATE      
 -----------------------------------------------
     1      (1,5,5)               0.0000000     
     2      (1,11,5)              0.0000000     
     3      (1,5,5)               0.0000000     
 -----------------------------------------------




 CHD PACKAGE (CHD-FROM-IBOUND) FLOW RATES   PERIOD      1   STEP        1
 -----------------------------------------------
   NUMBER   CELLID                    RATE      
 -----------------------------------------------
     1      (1,1,1)              -5243.9994     
     2      (1,1,2)              -5243.9908     
     3      (1,1,3)              -5243.9932     
     4      (1,1,4)              -5243.9970     
     5      (1,1,5)              -5244.0001     
     6      (1,1,6)              -5244.0027     
     7      (1,1,7)              -5244.0058     
     8      (1,1,8)              -5244.0101     
     9      (1,1,9)              -5244.0147     
     10     (1,21,1)             -5244.0169     
     11     (1,21,2)             -5244.0085     
     12     (1,21,3)             -5244.0022     
     13     (1,21,4)             -5243.9987     
     14     (1,21,5)             -5243.9956     
     15     (1,21,6)             -5243.9913     
     16     (1,21,7)             -5243.9863     
     17     (1,21,8)             -5243.9850     
     18     (1,21,9)             -5244.0024     
 -----------------------------------------------




 HEAD WILL BE SAVED ON UNIT 1016 AT END OF TIME STEP    1, STRESS PERIOD    1


  VOLUME BUDGET FOR ENTIRE MODEL AT END OF TIME STEP    1, STRESS PERIOD   1
  ---------------------------------------------------------------------------------------------------

     CUMULATIVE VOLUME      L**3       RATES FOR THIS TIME STEP      L**3/T          PACKAGE NAME    
     ------------------                 ------------------------                     ----------------

           IN:                                      IN:
           ---                                      ---
              STO-SS =           0.0000                STO-SS =           0.0000     STORAGE                          
              STO-SY =           0.0000                STO-SY =           0.0000     STORAGE                          
                 WEL =           0.0000                   WEL =           0.0000     WEL-1                            
                RCHA =       94392.0000                  RCHA =       94392.0000     RCH-1                            
                 CHD =           0.0000                   CHD =           0.0000     CHD-FROM-IBOUND                  

            TOTAL IN =       94392.0000              TOTAL IN =       94392.0000

          OUT:                                     OUT:
          ----                                     ----
              STO-SS =           0.0000                STO-SS =           0.0000     STORAGE                          
              STO-SY =           0.0000                STO-SY =           0.0000     STORAGE                          
                 WEL =           0.0000                   WEL =           0.0000     WEL-1                            
                RCHA =           0.0000                  RCHA =           0.0000     RCH-1                            
                 CHD =       94392.0010                   CHD =       94392.0010     CHD-FROM-IBOUND                  

           TOTAL OUT =       94392.0010             TOTAL OUT =       94392.0010

            IN - OUT =      -9.8867E-04              IN - OUT =      -9.8867E-04

 PERCENT DISCREPANCY =          -0.00     PERCENT DISCREPANCY =          -0.00




         TIME SUMMARY AT END OF TIME STEP    1 IN STRESS PERIOD    1
                    SECONDS     MINUTES      HOURS       DAYS        YEARS
                    -----------------------------------------------------------
   TIME STEP LENGTH  86400.      1440.0      24.000      1.0000     2.73785E-03
 STRESS PERIOD TIME  86400.      1440.0      24.000      1.0000     2.73785E-03
         TOTAL TIME  86400.      1440.0      24.000      1.0000     2.73785E-03


end timestep


start timestep kper="2" kstp="1" mode="normal"


 END OF FILE DETECTED IN OUTPUT CONTROL.
 CURRENT OUTPUT CONTROL SETTINGS WILL BE 
 REPEATED UNTIL THE END OF THE SIMULATION.

 OUTPUT CONTROL FOR STRESS PERIOD 2 IS REPEATED USING SETTINGS FROM A PREVIOUS STRESS PERIOD.


 PROCESSING STORAGE PERIOD DATA
 END PROCESSING STORAGE PERIOD DATA


 STRESS PERIOD 2 IS TRANSIENT


 REUSING WELS FROM LAST STRESS PERIOD

 REUSING CHDS FROM LAST STRESS PERIOD
 UBDSV1 SAVING     FLOW-JA-FACE ON UNIT   1015 AT TIME STEP      1, STRESS PERIOD      2
 UBDSV06 SAVING              WEL IN MODEL MUMODEL          PACKAGE MUMODEL         CONNECTED TO MODEL MUMODEL          PACKAGE WEL-1            ON UNIT   1015 AT TIME STEP      1, STRESS PERIOD      2
 UBDSV06 SAVING             RCHA IN MODEL MUMODEL          PACKAGE MUMODEL         CONNECTED TO MODEL MUMODEL          PACKAGE RCH-1            ON UNIT   1015 AT TIME STEP      1, STRESS PERIOD      2

 WEL PACKAGE (WEL-1) FLOW RATES   PERIOD      2   STEP        1
 -----------------------------------------------
   NUMBER   CELLID                    RATE      
 -----------------------------------------------
     1      (1,5,5)               0.0000000     
     2      (1,11,5)              0.0000000     
     3      (1,5,5)               0.0000000     
 -----------------------------------------------




 CHD PACKAGE (CHD-FROM-IBOUND) FLOW RATES   PERIOD      2   STEP        1
 -----------------------------------------------
   NUMBER   CELLID                    RATE      
 -----------------------------------------------
     1      (1,1,1)              -5243.8331     
     2      (1,1,2)              -5243.8243     
     3      (1,1,3)              -5243.8264     
     4      (1,1,4)              -5243.8299     
     5      (1,1,5)              -5243.8329     
     6      (1,1,6)              -5243.8353     
     7      (1,1,7)              -5243.8383     
     8      (1,1,8)              -5243.8424     
     9      (1,1,9)              -5243.8469     
     10     (1,21,1)             -5243.8490     
     11     (1,21,2)             -5243.8409     
     12     (1,21,3)             -5243.8349     
     13     (1,21,4)             -5243.8314     
     14     (1,21,5)             -5243.8282     
     15     (1,21,6)             -5243.8238     
     16     (1,21,7)             -5243.8189     
     17     (1,21,8)             -5243.8179     
     18     (1,21,9)             -5243.8353     
 -----------------------------------------------




 HEAD WILL BE SAVED ON UNIT 1016 AT END OF TIME STEP    1, STRESS PERIOD    2


  VOLUME BUDGET FOR ENTIRE MODEL AT END OF TIME STEP    1, STRESS PERIOD   2
  ---------------------------------------------------------------------------------------------------

     CUMULATIVE VOLUME      L**3       RATES FOR THIS TIME STEP      L**3/T          PACKAGE NAME    
     ------------------                 ------------------------                     ----------------

           IN:                                      IN:
           ---                                      ---
              STO-SS =       16214.8001                STO-SS =        8629.9794     STORAGE                          
              STO-SY =         486.6243                STO-SY =         258.9953     STORAGE                          
                 WEL =           0.0000                   WEL =           0.0000     WEL-1                            
                RCHA =      255037.2741                  RCHA =       85500.0000     RCH-1                            
                 CHD =           0.0000                   CHD =           0.0000     CHD-FROM-IBOUND                  

            TOTAL IN =      271738.6985              TOTAL IN =       94388.9748

          OUT:                                     OUT:
          ----                                     ----
              STO-SS =           0.0000                STO-SS =           0.0000     STORAGE                          
              STO-SY =           0.0000                STO-SY =           0.0000     STORAGE                          
                 WEL =           0.0000                   WEL =           0.0000     WEL-1                            
                RCHA =           0.0000                  RCHA =           0.0000     RCH-1                            
                 CHD =      271738.7278                   CHD =       94388.9898     CHD-FROM-IBOUND                  

           TOTAL OUT =      271738.7278             TOTAL OUT =       94388.9898

            IN - OUT =      -2.9290E-02              IN - OUT =      -1.5063E-02

 PERCENT DISCREPANCY =          -0.00     PERCENT DISCREPANCY =          -0.00




         TIME SUMMARY AT END OF TIME STEP    1 IN STRESS PERIOD    2
                    SECONDS     MINUTES      HOURS       DAYS        YEARS
                    -----------------------------------------------------------
   TIME STEP LENGTH 1.62336E+05  2705.6      45.093      1.8789     5.14413E-03
 STRESS PERIOD TIME 1.62336E+05  2705.6      45.093      1.8789     5.14413E-03
         TOTAL TIME 2.48736E+05  4145.6      69.093      2.8789     7.88198E-03


end timestep


start timestep kper="2" kstp="2" mode="normal"

 UBDSV1 SAVING     FLOW-JA-FACE ON UNIT   1015 AT TIME STEP      2, STRESS PERIOD      2
 UBDSV06 SAVING              WEL IN MODEL MUMODEL          PACKAGE MUMODEL         CONNECTED TO MODEL MUMODEL          PACKAGE WEL-1            ON UNIT   1015 AT TIME STEP      2, STRESS PERIOD      2
 UBDSV06 SAVING             RCHA IN MODEL MUMODEL          PACKAGE MUMODEL         CONNECTED TO MODEL MUMODEL          PACKAGE RCH-1            ON UNIT   1015 AT TIME STEP      2, STRESS PERIOD      2

 WEL PACKAGE (WEL-1) FLOW RATES   PERIOD      2   STEP        2
 -----------------------------------------------
   NUMBER   CELLID                    RATE      
 -----------------------------------------------
     1      (1,5,5)               0.0000000     
     2      (1,11,5)              0.0000000     
     3      (1,5,5)               0.0000000     
 -----------------------------------------------




 CHD PACKAGE (CHD-FROM-IBOUND) FLOW RATES   PERIOD      2   STEP        2
 -----------------------------------------------
   NUMBER   CELLID                    RATE      
 -----------------------------------------------
     1      (1,1,1)              -5243.6189     
     2      (1,1,2)              -5243.6101     
     3      (1,1,3)              -5243.6121     
     4      (1,1,4)              -5243.6157     
     5      (1,1,5)              -5243.6186     
     6      (1,1,6)              -5243.6211     
     7      (1,1,7)              -5243.6240     
     8      (1,1,8)              -5243.6282     
     9      (1,1,9)              -5243.6326     
     10     (1,21,1)             -5243.6346     
     11     (1,21,2)             -5243.6266     
     12     (1,21,3)             -5243.6207     
     13     (1,21,4)             -5243.6172     
     14     (1,21,5)             -5243.6140     
     15     (1,21,6)             -5243.6096     
     16     (1,21,7)             -5243.6047     
     17     (1,21,8)             -5243.6038     
     18     (1,21,9)             -5243.6211     
 -----------------------------------------------




 HEAD WILL BE SAVED ON UNIT 1016 AT END OF TIME STEP    2, STRESS PERIOD    2


  VOLUME BUDGET FOR ENTIRE MODEL AT END OF TIME STEP    2, STRESS PERIOD   2
  ---------------------------------------------------------------------------------------------------

     CUMULATIVE VOLUME      L**3       RATES FOR THIS TIME STEP      L**3/T          PACKAGE NAME    
     ------------------                 ------------------------                     ----------------

           IN:                                      IN:
           ---                                      ---
              STO-SS =       35664.1956                STO-SS =        8626.2695     STORAGE                          
              STO-SY =        1070.2367                STO-SY =         258.8460     STORAGE                          
                 WEL =           0.0000                   WEL =           0.0000     WEL-1                            
                RCHA =      447811.6030                  RCHA =       85500.0000     RCH-1                            
                 CHD =           0.0000                   CHD =           0.0000     CHD-FROM-IBOUND                  

            TOTAL IN =      484546.0353              TOTAL IN =       94385.1155

          OUT:                                     OUT:
          ----                                     ----
              STO-SS =           0.0000                STO-SS =           0.0000     STORAGE                          
              STO-SY =           0.0000                STO-SY =           0.0000     STORAGE                          
                 WEL =           0.0000                   WEL =           0.0000     WEL-1                            
                RCHA =           0.0000                  RCHA =           0.0000     RCH-1                            
                 CHD =      484546.1053                   CHD =       94385.1335     CHD-FROM-IBOUND                  

           TOTAL OUT =      484546.1053             TOTAL OUT =       94385.1335

            IN - OUT =      -6.9988E-02              IN - OUT =      -1.8050E-02

 PERCENT DISCREPANCY =          -0.00     PERCENT DISCREPANCY =          -0.00




         TIME SUMMARY AT END OF TIME STEP    2 IN STRESS PERIOD    2
                    SECONDS     MINUTES      HOURS       DAYS        YEARS
                    -----------------------------------------------------------
   TIME STEP LENGTH 1.94804E+05  3246.7      54.112      2.2547     6.17295E-03
 STRESS PERIOD TIME 3.57140E+05  5952.3      99.206      4.1336     1.13171E-02
         TOTAL TIME 4.43540E+05  7392.3      123.21      5.1336     1.40549E-02


end timestep


start timestep kper="2" kstp="3" mode="normal"

 UBDSV1 SAVING     FLOW-JA-FACE ON UNIT   1015 AT TIME STEP      3, STRESS PERIOD      2
 UBDSV06 SAVING              WEL IN MODEL MUMODEL          PACKAGE MUMODEL         CONNECTED TO MODEL MUMODEL          PACKAGE WEL-1            ON UNIT   1015 AT TIME STEP      3, STRESS PERIOD      2
 UBDSV06 SAVING             RCHA IN MODEL MUMODEL          PACKAGE MUMODEL         CONNECTED TO MODEL MUMODEL          PACKAGE RCH-1            ON UNIT   1015 AT TIME STEP      3, STRESS PERIOD      2

 WEL PACKAGE (WEL-1) FLOW RATES   PERIOD      2   STEP        3
 -----------------------------------------------
   NUMBER   CELLID                    RATE      
 -----------------------------------------------
     1      (1,5,5)               0.0000000     
     2      (1,11,5)              0.0000000     
     3      (1,5,5)               0.0000000     
 -----------------------------------------------




 CHD PACKAGE (CHD-FROM-IBOUND) FLOW RATES   PERIOD      2   STEP        3
 -----------------------------------------------
   NUMBER   CELLID                    RATE      
 -----------------------------------------------
     1      (1,1,1)              -5243.3630     
     2      (1,1,2)              -5243.3544     
     3      (1,1,3)              -5243.3564     
     4      (1,1,4)              -5243.3599     
     5      (1,1,5)              -5243.3628     
     6      (1,1,6)              -5243.3652     
     7      (1,1,7)              -5243.3682     
     8      (1,1,8)              -5243.3723     
     9      (1,1,9)              -5243.3768     
     10     (1,21,1)             -5243.3787     
     11     (1,21,2)             -5243.3707     
     12     (1,21,3)             -5243.3648     
     13     (1,21,4)             -5243.3613     
     14     (1,21,5)             -5243.3581     
     15     (1,21,6)             -5243.3538     
     16     (1,21,7)             -5243.3490     
     17     (1,21,8)             -5243.3482     
     18     (1,21,9)             -5243.3652     
 -----------------------------------------------




 HEAD WILL BE SAVED ON UNIT 1016 AT END OF TIME STEP    3, STRESS PERIOD    2


  VOLUME BUDGET FOR ENTIRE MODEL AT END OF TIME STEP    3, STRESS PERIOD   2
  ---------------------------------------------------------------------------------------------------

     CUMULATIVE VOLUME      L**3       RATES FOR THIS TIME STEP      L**3/T          PACKAGE NAME    
     ------------------                 ------------------------                     ----------------

           IN:                                      IN:
           ---                                      ---
              STO-SS =       58991.4839                STO-SS =        8621.8393     STORAGE                          
              STO-SY =        1770.0894                STO-SY =         258.6678     STORAGE                          
                 WEL =           0.0000                   WEL =           0.0000     WEL-1                            
                RCHA =      679140.7977                  RCHA =       85500.0000     RCH-1                            
                 CHD =           0.0000                   CHD =           0.0000     CHD-FROM-IBOUND                  

            TOTAL IN =      739902.3710              TOTAL IN =       94380.5071

          OUT:                                     OUT:
          ----                                     ----
              STO-SS =           0.0000                STO-SS =           0.0000     STORAGE                          
              STO-SY =           0.0000                STO-SY =           0.0000     STORAGE                          
                 WEL =           0.0000                   WEL =           0.0000     WEL-1                            
                RCHA =           0.0000                  RCHA =           0.0000     RCH-1                            
                 CHD =      739902.4995                   CHD =       94380.5287     CHD-FROM-IBOUND                  

           TOTAL OUT =      739902.4995             TOTAL OUT =       94380.5287

            IN - OUT =          -0.1285              IN - OUT =      -2.1622E-02

 PERCENT DISCREPANCY =          -0.00     PERCENT DISCREPANCY =          -0.00




         TIME SUMMARY AT END OF TIME STEP    3 IN STRESS PERIOD    2
                    SECONDS     MINUTES      HOURS       DAYS        YEARS
                    -----------------------------------------------------------
   TIME STEP LENGTH 2.33764E+05  3896.1      64.935      2.7056     7.40754E-03
 STRESS PERIOD TIME 5.90904E+05  9848.4      164.14      6.8392     1.87246E-02
         TOTAL TIME 6.77304E+05  11288.      188.14      7.8392     2.14625E-02


end timestep


start timestep kper="2" kstp="4" mode="normal"

 UBDSV1 SAVING     FLOW-JA-FACE ON UNIT   1015 AT TIME STEP      4, STRESS PERIOD      2
 UBDSV06 SAVING              WEL IN MODEL MUMODEL          PACKAGE MUMODEL         CONNECTED TO MODEL MUMODEL          PACKAGE WEL-1            ON UNIT   1015 AT TIME STEP      4, STRESS PERIOD      2
 UBDSV06 SAVING             RCHA IN MODEL MUMODEL          PACKAGE MUMODEL         CONNECTED TO MODEL MUMODEL          PACKAGE RCH-1            ON UNIT   1015 AT TIME STEP      4, STRESS PERIOD      2

 WEL PACKAGE (WEL-1) FLOW RATES   PERIOD      2   STEP        4
 -----------------------------------------------
   NUMBER   CELLID                    RATE      
 -----------------------------------------------
     1      (1,5,5)               0.0000000     
     2      (1,11,5)              0.0000000     
     3      (1,5,5)               0.0000000     
 -----------------------------------------------




 CHD PACKAGE (CHD-FROM-IBOUND) FLOW RATES   PERIOD      2   STEP        4
 -----------------------------------------------
   NUMBER   CELLID                    RATE      
 -----------------------------------------------
     1      (1,1,1)              -5243.0578     
     2      (1,1,2)              -5243.0493     
     3      (1,1,3)              -5243.0512     
     4      (1,1,4)              -5243.0547     
     5      (1,1,5)              -5243.0576     
     6      (1,1,6)              -5243.0600     
     7      (1,1,7)              -5243.0629     
     8      (1,1,8)              -5243.0671     
     9      (1,1,9)              -5243.0715     
     10     (1,21,1)             -5243.0734     
     11     (1,21,2)             -5243.0654     
     12     (1,21,3)             -5243.0596     
     13     (1,21,4)             -5243.0561     
     14     (1,21,5)             -5243.0529     
     15     (1,21,6)             -5243.0486     
     16     (1,21,7)             -5243.0439     
     17     (1,21,8)             -5243.0433     
     18     (1,21,9)             -5243.0600     
 -----------------------------------------------




 HEAD WILL BE SAVED ON UNIT 1016 AT END OF TIME STEP    4, STRESS PERIOD    2


  VOLUME BUDGET FOR ENTIRE MODEL AT END OF TIME STEP    4, STRESS PERIOD   2
  ---------------------------------------------------------------------------------------------------

     CUMULATIVE VOLUME      L**3       RATES FOR THIS TIME STEP      L**3/T          PACKAGE NAME    
     ------------------                 ------------------------                     ----------------

           IN:                                      IN:
           ---                                      ---
              STO-SS =       86967.0702                STO-SS =        8616.5541     STORAGE                          
              STO-SY =        2609.2230                STO-SY =         258.4553     STORAGE                          
                 WEL =           0.0000                   WEL =           0.0000     WEL-1                            
                RCHA =      956735.8313                  RCHA =       85500.0000     RCH-1                            
                 CHD =           0.0000                   CHD =           0.0000     CHD-FROM-IBOUND                  

            TOTAL IN =     1046312.1245              TOTAL IN =       94375.0095

          OUT:                                     OUT:
          ----                                     ----
              STO-SS =           0.0000                STO-SS =           0.0000     STORAGE                          
              STO-SY =           0.0000                STO-SY =           0.0000     STORAGE                          
                 WEL =           0.0000                   WEL =           0.0000     WEL-1                            
                RCHA =           0.0000                  RCHA =           0.0000     RCH-1                            
                 CHD =     1046312.3370                   CHD =       94375.0353     CHD-FROM-IBOUND                  

           TOTAL OUT =     1046312.3370             TOTAL OUT =       94375.0353

            IN - OUT =          -0.2125              IN - OUT =      -2.5887E-02

 PERCENT DISCREPANCY =          -0.00     PERCENT DISCREPANCY =          -0.00




         TIME SUMMARY AT END OF TIME STEP    4 IN STRESS PERIOD    2
                    SECONDS     MINUTES      HOURS       DAYS        YEARS
                    -----------------------------------------------------------
   TIME STEP LENGTH 2.80517E+05  4675.3      77.921      3.2467     8.88905E-03
 STRESS PERIOD TIME 8.71421E+05  14524.      242.06      10.086     2.76137E-02
         TOTAL TIME 9.57821E+05  15964.      266.06      11.086     3.03515E-02


end timestep


start timestep kper="2" kstp="5" mode="normal"

 UBDSV1 SAVING     FLOW-JA-FACE ON UNIT   1015 AT TIME STEP      5, STRESS PERIOD      2
 UBDSV06 SAVING              WEL IN MODEL MUMODEL          PACKAGE MUMODEL         CONNECTED TO MODEL MUMODEL          PACKAGE WEL-1            ON UNIT   1015 AT TIME STEP      5, STRESS PERIOD      2
 UBDSV06 SAVING             RCHA IN MODEL MUMODEL          PACKAGE MUMODEL         CONNECTED TO MODEL MUMODEL          PACKAGE RCH-1            ON UNIT   1015 AT TIME STEP      5, STRESS PERIOD      2

 WEL PACKAGE (WEL-1) FLOW RATES   PERIOD      2   STEP        5
 -----------------------------------------------
   NUMBER   CELLID                    RATE      
 -----------------------------------------------
     1      (1,5,5)               0.0000000     
     2      (1,11,5)              0.0000000     
     3      (1,5,5)               0.0000000     
 -----------------------------------------------




 CHD PACKAGE (CHD-FROM-IBOUND) FLOW RATES   PERIOD      2   STEP        5
 -----------------------------------------------
   NUMBER   CELLID                    RATE      
 -----------------------------------------------
     1      (1,1,1)              -5242.6942     
     2      (1,1,2)              -5242.6857     
     3      (1,1,3)              -5242.6876     
     4      (1,1,4)              -5242.6910     
     5      (1,1,5)              -5242.6939     
     6      (1,1,6)              -5242.6963     
     7      (1,1,7)              -5242.6992     
     8      (1,1,8)              -5242.7033     
     9      (1,1,9)              -5242.7078     
     10     (1,21,1)             -5242.7095     
     11     (1,21,2)             -5242.7016     
     12     (1,21,3)             -5242.6958     
     13     (1,21,4)             -5242.6924     
     14     (1,21,5)             -5242.6893     
     15     (1,21,6)             -5242.6850     
     16     (1,21,7)             -5242.6803     
     17     (1,21,8)             -5242.6799     
     18     (1,21,9)             -5242.6963     
 -----------------------------------------------




 HEAD WILL BE SAVED ON UNIT 1016 AT END OF TIME STEP    5, STRESS PERIOD    2


  VOLUME BUDGET FOR ENTIRE MODEL AT END OF TIME STEP    5, STRESS PERIOD   2
  ---------------------------------------------------------------------------------------------------

     CUMULATIVE VOLUME      L**3       RATES FOR THIS TIME STEP      L**3/T          PACKAGE NAME    
     ------------------                 ------------------------                     ----------------

           IN:                                      IN:
           ---                                      ---
              STO-SS =      120513.2350                STO-SS =        8610.2558     STORAGE                          
              STO-SY =        3615.1979                STO-SY =         258.2024     STORAGE                          
                 WEL =           0.0000                   WEL =           0.0000     WEL-1                            
                RCHA =     1289849.8717                  RCHA =       85500.0000     RCH-1                            
                 CHD =           0.0000                   CHD =           0.0000     CHD-FROM-IBOUND                  

            TOTAL IN =     1413978.3046              TOTAL IN =       94368.4582

          OUT:                                     OUT:
          ----                                     ----
              STO-SS =           0.0000                STO-SS =           0.0000     STORAGE                          
              STO-SY =           0.0000                STO-SY =           0.0000     STORAGE                          
                 WEL =           0.0000                   WEL =           0.0000     WEL-1                            
                RCHA =           0.0000                  RCHA =           0.0000     RCH-1                            
                 CHD =     1413978.6379                   CHD =       94368.4892     CHD-FROM-IBOUND                  

           TOTAL OUT =     1413978.6379             TOTAL OUT =       94368.4892

            IN - OUT =          -0.3333              IN - OUT =      -3.0987E-02

 PERCENT DISCREPANCY =          -0.00     PERCENT DISCREPANCY =          -0.00




         TIME SUMMARY AT END OF TIME STEP    5 IN STRESS PERIOD    2
                    SECONDS     MINUTES      HOURS       DAYS        YEARS
                    -----------------------------------------------------------
   TIME STEP LENGTH 3.36621E+05  5610.3      93.506      3.8961     1.06669E-02
 STRESS PERIOD TIME 1.20804E+06  20134.      335.57      13.982     3.82805E-02
         TOTAL TIME 1.29444E+06  21574.      359.57      14.982     4.10184E-02


end timestep


start timestep kper="2" kstp="6" mode="normal"

 UBDSV1 SAVING     FLOW-JA-FACE ON UNIT   1015 AT TIME STEP      6, STRESS PERIOD      2
 UBDSV06 SAVING              WEL IN MODEL MUMODEL          PACKAGE MUMODEL         CONNECTED TO MODEL MUMODEL          PACKAGE WEL-1            ON UNIT   1015 AT TIME STEP      6, STRESS PERIOD      2
 UBDSV06 SAVING             RCHA IN MODEL MUMODEL          PACKAGE MUMODEL         CONNECTED TO MODEL MUMODEL          PACKAGE RCH-1            ON UNIT   1015 AT TIME STEP      6, STRESS PERIOD      2

 WEL PACKAGE (WEL-1) FLOW RATES   PERIOD      2   STEP        6
 -----------------------------------------------
   NUMBER   CELLID                    RATE      
 -----------------------------------------------
     1      (1,5,5)               0.0000000     
     2      (1,11,5)              0.0000000     
     3      (1,5,5)               0.0000000     
 -----------------------------------------------




 CHD PACKAGE (CHD-FROM-IBOUND) FLOW RATES   PERIOD      2   STEP        6
 -----------------------------------------------
   NUMBER   CELLID                    RATE      
 -----------------------------------------------
     1      (1,1,1)              -5242.2614     
     2      (1,1,2)              -5242.2531     
     3      (1,1,3)              -5242.2548     
     4      (1,1,4)              -5242.2582     
     5      (1,1,5)              -5242.2611     
     6      (1,1,6)              -5242.2635     
     7      (1,1,7)              -5242.2664     
     8      (1,1,8)              -5242.2705     
     9      (1,1,9)              -5242.2749     
     10     (1,21,1)             -5242.2765     
     11     (1,21,2)             -5242.2687     
     12     (1,21,3)             -5242.2630     
     13     (1,21,4)             -5242.2596     
     14     (1,21,5)             -5242.2565     
     15     (1,21,6)             -5242.2523     
     16     (1,21,7)             -5242.2477     
     17     (1,21,8)             -5242.2474     
     18     (1,21,9)             -5242.2635     
 -----------------------------------------------




 HEAD WILL BE SAVED ON UNIT 1016 AT END OF TIME STEP    6, STRESS PERIOD    2


  VOLUME BUDGET FOR ENTIRE MODEL AT END OF TIME STEP    6, STRESS PERIOD   2
  ---------------------------------------------------------------------------------------------------

     CUMULATIVE VOLUME      L**3       RATES FOR THIS TIME STEP      L**3/T          PACKAGE NAME    
     ------------------                 ------------------------                     ----------------

           IN:                                      IN:
           ---                                      ---
              STO-SS =      160733.5881                STO-SS =        8602.7601     STORAGE                          
              STO-SY =        4820.9622                STO-SY =         257.9018     STORAGE                          
                 WEL =           0.0000                   WEL =           0.0000     WEL-1                            
                RCHA =     1689586.7201                  RCHA =       85500.0000     RCH-1                            
                 CHD =           0.0000                   CHD =           0.0000     CHD-FROM-IBOUND                  

            TOTAL IN =     1855141.2704              TOTAL IN =       94360.6618

          OUT:                                     OUT:
          ----                                     ----
              STO-SS =           0.0000                STO-SS =           0.0000     STORAGE                          
              STO-SY =           0.0000                STO-SY =           0.0000     STORAGE                          
                 WEL =           0.0000                   WEL =           0.0000     WEL-1                            
                RCHA =           0.0000                  RCHA =           0.0000     RCH-1                            
                 CHD =     1855141.7770                   CHD =       94360.6989     CHD-FROM-IBOUND                  

           TOTAL OUT =     1855141.7770             TOTAL OUT =       94360.6989

            IN - OUT =          -0.5066              IN - OUT =      -3.7074E-02

 PERCENT DISCREPANCY =          -0.00     PERCENT DISCREPANCY =          -0.00




         TIME SUMMARY AT END OF TIME STEP    6 IN STRESS PERIOD    2
                    SECONDS     MINUTES      HOURS       DAYS        YEARS
                    -----------------------------------------------------------
   TIME STEP LENGTH 4.03945E+05  6732.4      112.21      4.6753     1.28002E-02
 STRESS PERIOD TIME 1.61199E+06  26866.      447.77      18.657     5.10808E-02
         TOTAL TIME 1.69839E+06  28306.      471.77      19.657     5.38186E-02


end timestep


start timestep kper="2" kstp="7" mode="normal"

 UBDSV1 SAVING     FLOW-JA-FACE ON UNIT   1015 AT TIME STEP      7, STRESS PERIOD      2
 UBDSV06 SAVING              WEL IN MODEL MUMODEL          PACKAGE MUMODEL         CONNECTED TO MODEL MUMODEL          PACKAGE WEL-1            ON UNIT   1015 AT TIME STEP      7, STRESS PERIOD      2
 UBDSV06 SAVING             RCHA IN MODEL MUMODEL          PACKAGE MUMODEL         CONNECTED TO MODEL MUMODEL          PACKAGE RCH-1            ON UNIT   1015 AT TIME STEP      7, STRESS PERIOD      2

 WEL PACKAGE (WEL-1) FLOW RATES   PERIOD      2   STEP        7
 -----------------------------------------------
   NUMBER   CELLID                    RATE      
 -----------------------------------------------
     1      (1,5,5)               0.0000000     
     2      (1,11,5)              0.0000000     
     3      (1,5,5)               0.0000000     
 -----------------------------------------------




 CHD PACKAGE (CHD-FROM-IBOUND) FLOW RATES   PERIOD      2   STEP        7
 -----------------------------------------------
   NUMBER   CELLID                    RATE      
 -----------------------------------------------
     1      (1,1,1)              -5241.7471     
     2      (1,1,2)              -5241.7390     
     3      (1,1,3)              -5241.7406     
     4      (1,1,4)              -5241.7440     
     5      (1,1,5)              -5241.7468     
     6      (1,1,6)              -5241.7492     
     7      (1,1,7)              -5241.7521     
     8      (1,1,8)              -5241.7561     
     9      (1,1,9)              -5241.7605     
     10     (1,21,1)             -5241.7620     
     11     (1,21,2)             -5241.7543     
     12     (1,21,3)             -5241.7486     
     13     (1,21,4)             -5241.7453     
     14     (1,21,5)             -5241.7422     
     15     (1,21,6)             -5241.7381     
     16     (1,21,7)             -5241.7336     
     17     (1,21,8)             -5241.7335     
     18     (1,21,9)             -5241.7493     
 -----------------------------------------------




 HEAD WILL BE SAVED ON UNIT 1016 AT END OF TIME STEP    7, STRESS PERIOD    2


  VOLUME BUDGET FOR ENTIRE MODEL AT END OF TIME STEP    7, STRESS PERIOD   2
  ---------------------------------------------------------------------------------------------------

     CUMULATIVE VOLUME      L**3       RATES FOR THIS TIME STEP      L**3/T          PACKAGE NAME    
     ------------------                 ------------------------                     ----------------

           IN:                                      IN:
           ---                                      ---
              STO-SS =      208948.0402                STO-SS =        8593.8530     STORAGE                          
              STO-SY =        6265.8777                STO-SY =         257.5450     STORAGE                          
                 WEL =           0.0000                   WEL =           0.0000     WEL-1                            
                RCHA =     2169270.9383                  RCHA =       85500.0000     RCH-1                            
                 CHD =           0.0000                   CHD =           0.0000     CHD-FROM-IBOUND                  

            TOTAL IN =     2384484.8562              TOTAL IN =       94351.3980

          OUT:                                     OUT:
          ----                                     ----
              STO-SS =           0.0000                STO-SS =           0.0000     STORAGE                          
              STO-SY =           0.0000                STO-SY =           0.0000     STORAGE                          
                 WEL =           0.0000                   WEL =           0.0000     WEL-1                            
                RCHA =           0.0000                  RCHA =           0.0000     RCH-1                            
                 CHD =     2384485.6115                   CHD =       94351.4423     CHD-FROM-IBOUND                  

           TOTAL OUT =     2384485.6115             TOTAL OUT =       94351.4423

            IN - OUT =          -0.7553              IN - OUT =      -4.4336E-02

 PERCENT DISCREPANCY =          -0.00     PERCENT DISCREPANCY =          -0.00




         TIME SUMMARY AT END OF TIME STEP    7 IN STRESS PERIOD    2
                    SECONDS     MINUTES      HOURS       DAYS        YEARS
                    -----------------------------------------------------------
   TIME STEP LENGTH 4.84734E+05  8078.9      134.65      5.6103     1.53603E-02
 STRESS PERIOD TIME 2.09672E+06  34945.      582.42      24.268     6.64410E-02
         TOTAL TIME 2.18312E+06  36385.      606.42      25.268     6.91789E-02


end timestep


start timestep kper="2" kstp="8" mode="normal"

 UBDSV1 SAVING     FLOW-JA-FACE ON UNIT   1015 AT TIME STEP      8, STRESS PERIOD      2
 UBDSV06 SAVING              WEL IN MODEL MUMODEL          PACKAGE MUMODEL         CONNECTED TO MODEL MUMODEL          PACKAGE WEL-1            ON UNIT   1015 AT TIME STEP      8, STRESS PERIOD      2
 UBDSV06 SAVING             RCHA IN MODEL MUMODEL          PACKAGE MUMODEL         CONNECTED TO MODEL MUMODEL          PACKAGE RCH-1            ON UNIT   1015 AT TIME STEP      8, STRESS PERIOD      2

 WEL PACKAGE (WEL-1) FLOW RATES   PERIOD      2   STEP        8
 -----------------------------------------------
   NUMBER   CELLID                    RATE      
 -----------------------------------------------
     1      (1,5,5)               0.0000000     
     2      (1,11,5)              0.0000000     
     3      (1,5,5)               0.0000000     
 -----------------------------------------------




 CHD PACKAGE (CHD-FROM-IBOUND) FLOW RATES   PERIOD      2   STEP        8
 -----------------------------------------------
   NUMBER   CELLID                    RATE      
 -----------------------------------------------
     1      (1,1,1)              -5241.1371     
     2      (1,1,2)              -5241.1293     
     3      (1,1,3)              -5241.1308     
     4      (1,1,4)              -5241.1340     
     5      (1,1,5)              -5241.1368     
     6      (1,1,6)              -5241.1392     
     7      (1,1,7)              -5241.1421     
     8      (1,1,8)              -5241.1461     
     9      (1,1,9)              -5241.1504     
     10     (1,21,1)             -5241.1518     
     11     (1,21,2)             -5241.1442     
     12     (1,21,3)             -5241.1386     
     13     (1,21,4)             -5241.1353     
     14     (1,21,5)             -5241.1323     
     15     (1,21,6)             -5241.1282     
     16     (1,21,7)             -5241.1239     
     17     (1,21,8)             -5241.1240     
     18     (1,21,9)             -5241.1393     
 -----------------------------------------------




 HEAD WILL BE SAVED ON UNIT 1016 AT END OF TIME STEP    8, STRESS PERIOD    2


  VOLUME BUDGET FOR ENTIRE MODEL AT END OF TIME STEP    8, STRESS PERIOD   2
  ---------------------------------------------------------------------------------------------------

     CUMULATIVE VOLUME      L**3       RATES FOR THIS TIME STEP      L**3/T          PACKAGE NAME    
     ------------------                 ------------------------                     ----------------

           IN:                                      IN:
           ---                                      ---
              STO-SS =      266734.2548                STO-SS =        8583.2880     STORAGE                          
              STO-SY =        7996.9318                STO-SY =         257.1225     STORAGE                          
                 WEL =           0.0000                   WEL =           0.0000     WEL-1                            
                RCHA =     2744892.0000                  RCHA =       85500.0000     RCH-1                            
                 CHD =           0.0000                   CHD =           0.0000     CHD-FROM-IBOUND                  

            TOTAL IN =     3019623.1866              TOTAL IN =       94340.4105

          OUT:                                     OUT:
          ----                                     ----
              STO-SS =           0.0000                STO-SS =           0.0000     STORAGE                          
              STO-SY =           0.0000                STO-SY =           0.0000     STORAGE                          
                 WEL =           0.0000                   WEL =           0.0000     WEL-1                            
                RCHA =           0.0000                  RCHA =           0.0000     RCH-1                            
                 CHD =     3019624.2987                   CHD =       94340.4635     CHD-FROM-IBOUND                  

           TOTAL OUT =     3019624.2987             TOTAL OUT =       94340.4635

            IN - OUT =          -1.1120              IN - OUT =      -5.2983E-02

 PERCENT DISCREPANCY =          -0.00     PERCENT DISCREPANCY =          -0.00




         TIME SUMMARY AT END OF TIME STEP    8 IN STRESS PERIOD    2
                    SECONDS     MINUTES      HOURS       DAYS        YEARS
                    -----------------------------------------------------------
   TIME STEP LENGTH 5.81680E+05  9694.7      161.58      6.7324     1.84323E-02
 STRESS PERIOD TIME 2.67840E+06  44640.      744.00      31.000     8.48734E-02
         TOTAL TIME 2.76480E+06  46080.      768.00      32.000     8.76112E-02


end timestep


start timestep kper="3" kstp="1" mode="normal"


 OUTPUT CONTROL FOR STRESS PERIOD 3 IS REPEATED USING SETTINGS FROM A PREVIOUS STRESS PERIOD.


 STRESS PERIOD 3 IS TRANSIENT


 REUSING WELS FROM LAST STRESS PERIOD

 REUSING CHDS FROM LAST STRESS PERIOD
 UBDSV1 SAVING     FLOW-JA-FACE ON UNIT   1015 AT TIME STEP      1, STRESS PERIOD      3
 UBDSV06 SAVING              WEL IN MODEL MUMODEL          PACKAGE MUMODEL         CONNECTED TO MODEL MUMODEL          PACKAGE WEL-1            ON UNIT   1015 AT TIME STEP      1, STRESS PERIOD      3
 UBDSV06 SAVING             RCHA IN MODEL MUMODEL          PACKAGE MUMODEL         CONNECTED TO MODEL MUMODEL          PACKAGE RCH-1            ON UNIT   1015 AT TIME STEP      1, STRESS PERIOD      3

 WEL PACKAGE (WEL-1) FLOW RATES   PERIOD      3   STEP        1
 -----------------------------------------------
   NUMBER   CELLID                    RATE      
 -----------------------------------------------
     1      (1,5,5)               0.0000000     
     2      (1,11,5)              0.0000000     
     3      (1,5,5)               0.0000000     
 -----------------------------------------------




 CHD PACKAGE (CHD-FROM-IBOUND) FLOW RATES   PERIOD      3   STEP        1
 -----------------------------------------------
   NUMBER   CELLID                    RATE      
 -----------------------------------------------
     1      (1,1,1)              -5244.0896     
     2      (1,1,2)              -5244.0818     
     3      (1,1,3)              -5244.0832     
     4      (1,1,4)              -5244.0865     
     5      (1,1,5)              -5244.0893     
     6      (1,1,6)              -5244.0916     
     7      (1,1,7)              -5244.0945     
     8      (1,1,8)              -5244.0985     
     9      (1,1,9)              -5244.1029     
     10     (1,21,1)             -5244.1042     
     11     (1,21,2)             -5244.0966     
     12     (1,21,3)             -5244.0910     
     13     (1,21,4)             -5244.0878     
     14     (1,21,5)             -5244.0847     
     15     (1,21,6)             -5244.0807     
     16     (1,21,7)             -5244.0764     
     17     (1,21,8)             -5244.0766     
     18     (1,21,9)             -5244.0918     
 -----------------------------------------------




 HEAD WILL BE SAVED ON UNIT 1016 AT END OF TIME STEP    1, STRESS PERIOD    3


  VOLUME BUDGET FOR ENTIRE MODEL AT END OF TIME STEP    1, STRESS PERIOD   3
  ---------------------------------------------------------------------------------------------------

     CUMULATIVE VOLUME      L**3       RATES FOR THIS TIME STEP      L**3/T          PACKAGE NAME    
     ------------------                 ------------------------                     ----------------

           IN:                                      IN:
           ---                                      ---
              STO-SS =      266734.2548                STO-SS =           0.0000     STORAGE                          
              STO-SY =        7996.9318                STO-SY =           0.0000     STORAGE                          
                 WEL =           0.0000                   WEL =           0.0000     WEL-1                            
                RCHA =     3180188.8717                  RCHA =      256500.0000     RCH-1                            
                 CHD =           0.0000                   CHD =           0.0000     CHD-FROM-IBOUND                  

            TOTAL IN =     3454920.0584              TOTAL IN =      256500.0000

          OUT:                                     OUT:
          ----                                     ----
              STO-SS =      267088.0743                STO-SS =      157382.4567     STORAGE                          
              STO-SY =        8016.8204                STO-SY =        4723.9357     STORAGE                          
                 WEL =           0.0000                   WEL =           0.0000     WEL-1                            
                RCHA =           0.0000                  RCHA =           0.0000     RCH-1                            
                 CHD =     3179816.2759                   CHD =       94393.6077     CHD-FROM-IBOUND                  

           TOTAL OUT =     3454921.1706             TOTAL OUT =      256500.0001

            IN - OUT =          -1.1122              IN - OUT =      -1.0951E-04

 PERCENT DISCREPANCY =          -0.00     PERCENT DISCREPANCY =          -0.00




         TIME SUMMARY AT END OF TIME STEP    1 IN STRESS PERIOD    3
                    SECONDS     MINUTES      HOURS       DAYS        YEARS
                    -----------------------------------------------------------
   TIME STEP LENGTH 1.46626E+05  2443.8      40.730      1.6971     4.64631E-03
 STRESS PERIOD TIME 1.46626E+05  2443.8      40.730      1.6971     4.64631E-03
         TOTAL TIME 2.91143E+06  48524.      808.73      33.697     9.22575E-02


end timestep


start timestep kper="3" kstp="2" mode="normal"

 UBDSV1 SAVING     FLOW-JA-FACE ON UNIT   1015 AT TIME STEP      2, STRESS PERIOD      3
 UBDSV06 SAVING              WEL IN MODEL MUMODEL          PACKAGE MUMODEL         CONNECTED TO MODEL MUMODEL          PACKAGE WEL-1            ON UNIT   1015 AT TIME STEP      2, STRESS PERIOD      3
 UBDSV06 SAVING             RCHA IN MODEL MUMODEL          PACKAGE MUMODEL         CONNECTED TO MODEL MUMODEL          PACKAGE RCH-1            ON UNIT   1015 AT TIME STEP      2, STRESS PERIOD      3

 WEL PACKAGE (WEL-1) FLOW RATES   PERIOD      3   STEP        2
 -----------------------------------------------
   NUMBER   CELLID                    RATE      
 -----------------------------------------------
     1      (1,5,5)               0.0000000     
     2      (1,11,5)              0.0000000     
     3      (1,5,5)               0.0000000     
 -----------------------------------------------




 CHD PACKAGE (CHD-FROM-IBOUND) FLOW RATES   PERIOD      3   STEP        2
 -----------------------------------------------
   NUMBER   CELLID                    RATE      
 -----------------------------------------------
     1      (1,1,1)              -5247.6775     
     2      (1,1,2)              -5247.6698     
     3      (1,1,3)              -5247.6711     
     4      (1,1,4)              -5247.6744     
     5      (1,1,5)              -5247.6771     
     6      (1,1,6)              -5247.6795     
     7      (1,1,7)              -5247.6823     
     8      (1,1,8)              -5247.6864     
     9      (1,1,9)              -5247.6907     
     10     (1,21,1)             -5247.6919     
     11     (1,21,2)             -5247.6844     
     12     (1,21,3)             -5247.6789     
     13     (1,21,4)             -5247.6756     
     14     (1,21,5)             -5247.6726     
     15     (1,21,6)             -5247.6686     
     16     (1,21,7)             -5247.6643     
     17     (1,21,8)             -5247.6646     
     18     (1,21,9)             -5247.6796     
 -----------------------------------------------




 HEAD WILL BE SAVED ON UNIT 1016 AT END OF TIME STEP    2, STRESS PERIOD    3


  VOLUME BUDGET FOR ENTIRE MODEL AT END OF TIME STEP    2, STRESS PERIOD   3
  ---------------------------------------------------------------------------------------------------

     CUMULATIVE VOLUME      L**3       RATES FOR THIS TIME STEP      L**3/T          PACKAGE NAME    
     ------------------                 ------------------------                     ----------------

           IN:                                      IN:
           ---                                      ---
              STO-SS =      266734.2548                STO-SS =           0.0000     STORAGE                          
              STO-SY =        7996.9318                STO-SY =           0.0000     STORAGE                          
                 WEL =           0.0000                   WEL =           0.0000     WEL-1                            
                RCHA =     3702545.1178                  RCHA =      256500.0000     RCH-1                            
                 CHD =           0.0000                   CHD =           0.0000     CHD-FROM-IBOUND                  

            TOTAL IN =     3977276.3045              TOTAL IN =      256500.0000

          OUT:                                     OUT:
          ----                                     ----
              STO-SS =      587467.9621                STO-SS =      157320.6826     STORAGE                          
              STO-SY =       17631.2875                STO-SY =        4721.1282     STORAGE                          
                 WEL =           0.0000                   WEL =           0.0000     WEL-1                            
                RCHA =           0.0000                  RCHA =           0.0000     RCH-1                            
                 CHD =     3372178.1674                   CHD =       94458.1893     CHD-FROM-IBOUND                  

           TOTAL OUT =     3977277.4171             TOTAL OUT =      256500.0002

            IN - OUT =          -1.1126              IN - OUT =      -1.9138E-04

 PERCENT DISCREPANCY =          -0.00     PERCENT DISCREPANCY =          -0.00




         TIME SUMMARY AT END OF TIME STEP    2 IN STRESS PERIOD    3
                    SECONDS     MINUTES      HOURS       DAYS        YEARS
                    -----------------------------------------------------------
   TIME STEP LENGTH 1.75952E+05  2932.5      48.875      2.0365     5.57557E-03
 STRESS PERIOD TIME 3.22578E+05  5376.3      89.605      3.7335     1.02219E-02
         TOTAL TIME 3.08738E+06  51456.      857.60      35.734     9.78331E-02


end timestep


start timestep kper="3" kstp="3" mode="normal"

 UBDSV1 SAVING     FLOW-JA-FACE ON UNIT   1015 AT TIME STEP      3, STRESS PERIOD      3
 UBDSV06 SAVING              WEL IN MODEL MUMODEL          PACKAGE MUMODEL         CONNECTED TO MODEL MUMODEL          PACKAGE WEL-1            ON UNIT   1015 AT TIME STEP      3, STRESS PERIOD      3
 UBDSV06 SAVING             RCHA IN MODEL MUMODEL          PACKAGE MUMODEL         CONNECTED TO MODEL MUMODEL          PACKAGE RCH-1            ON UNIT   1015 AT TIME STEP      3, STRESS PERIOD      3

 WEL PACKAGE (WEL-1) FLOW RATES   PERIOD      3   STEP        3
 -----------------------------------------------
   NUMBER   CELLID                    RATE      
 -----------------------------------------------
     1      (1,5,5)               0.0000000     
     2      (1,11,5)              0.0000000     
     3      (1,5,5)               0.0000000     
 -----------------------------------------------




 CHD PACKAGE (CHD-FROM-IBOUND) FLOW RATES   PERIOD      3   STEP        3
 -----------------------------------------------
   NUMBER   CELLID                    RATE      
 -----------------------------------------------
     1      (1,1,1)              -5251.9635     
     2      (1,1,2)              -5251.9559     
     3      (1,1,3)              -5251.9572     
     4      (1,1,4)              -5251.9604     
     5      (1,1,5)              -5251.9632     
     6      (1,1,6)              -5251.9656     
     7      (1,1,7)              -5251.9684     
     8      (1,1,8)              -5251.9724     
     9      (1,1,9)              -5251.9767     
     10     (1,21,1)             -5251.9779     
     11     (1,21,2)             -5251.9704     
     12     (1,21,3)             -5251.9649     
     13     (1,21,4)             -5251.9617     
     14     (1,21,5)             -5251.9587     
     15     (1,21,6)             -5251.9547     
     16     (1,21,7)             -5251.9505     
     17     (1,21,8)             -5251.9508     
     18     (1,21,9)             -5251.9657     
 -----------------------------------------------




 HEAD WILL BE SAVED ON UNIT 1016 AT END OF TIME STEP    3, STRESS PERIOD    3


  VOLUME BUDGET FOR ENTIRE MODEL AT END OF TIME STEP    3, STRESS PERIOD   3
  ---------------------------------------------------------------------------------------------------

     CUMULATIVE VOLUME      L**3       RATES FOR THIS TIME STEP      L**3/T          PACKAGE NAME    
     ------------------                 ------------------------                     ----------------

           IN:                                      IN:
           ---                                      ---
              STO-SS =      266734.2548                STO-SS =           0.0000     STORAGE                          
              STO-SY =        7996.9318                STO-SY =           0.0000     STORAGE                          
                 WEL =           0.0000                   WEL =           0.0000     WEL-1                            
                RCHA =     4329372.6131                  RCHA =      256500.0000     RCH-1                            
                 CHD =           0.0000                   CHD =           0.0000     CHD-FROM-IBOUND                  

            TOTAL IN =     4604103.7998              TOTAL IN =      256500.0000

          OUT:                                     OUT:
          ----                                     ----
              STO-SS =      971743.4852                STO-SS =      157246.8859     STORAGE                          
              STO-SY =       29160.4549                STO-SY =        4717.7756     STORAGE                          
                 WEL =           0.0000                   WEL =           0.0000     WEL-1                            
                RCHA =           0.0000                  RCHA =           0.0000     RCH-1                            
                 CHD =     3603200.9731                   CHD =       94535.3388     CHD-FROM-IBOUND                  

           TOTAL OUT =     4604104.9132             TOTAL OUT =      256500.0003

            IN - OUT =          -1.1134              IN - OUT =      -3.2587E-04

 PERCENT DISCREPANCY =          -0.00     PERCENT DISCREPANCY =          -0.00




         TIME SUMMARY AT END OF TIME STEP    3 IN STRESS PERIOD    3
                    SECONDS     MINUTES      HOURS       DAYS        YEARS
                    -----------------------------------------------------------
   TIME STEP LENGTH 2.11142E+05  3519.0      58.651      2.4438     6.69068E-03
 STRESS PERIOD TIME 5.33720E+05  8895.3      148.26      6.1773     1.69126E-02
         TOTAL TIME 3.29852E+06  54975.      916.26      38.177     0.10452    


end timestep


start timestep kper="3" kstp="4" mode="normal"

 UBDSV1 SAVING     FLOW-JA-FACE ON UNIT   1015 AT TIME STEP      4, STRESS PERIOD      3
 UBDSV06 SAVING              WEL IN MODEL MUMODEL          PACKAGE MUMODEL         CONNECTED TO MODEL MUMODEL          PACKAGE WEL-1            ON UNIT   1015 AT TIME STEP      4, STRESS PERIOD      3
 UBDSV06 SAVING             RCHA IN MODEL MUMODEL          PACKAGE MUMODEL         CONNECTED TO MODEL MUMODEL          PACKAGE RCH-1            ON UNIT   1015 AT TIME STEP      4, STRESS PERIOD      3

 WEL PACKAGE (WEL-1) FLOW RATES   PERIOD      3   STEP        4
 -----------------------------------------------
   NUMBER   CELLID                    RATE      
 -----------------------------------------------
     1      (1,5,5)               0.0000000     
     2      (1,11,5)              0.0000000     
     3      (1,5,5)               0.0000000     
 -----------------------------------------------




 CHD PACKAGE (CHD-FROM-IBOUND) FLOW RATES   PERIOD      3   STEP        4
 -----------------------------------------------
   NUMBER   CELLID                    RATE      
 -----------------------------------------------
     1      (1,1,1)              -5257.0793     
     2      (1,1,2)              -5257.0717     
     3      (1,1,3)              -5257.0730     
     4      (1,1,4)              -5257.0762     
     5      (1,1,5)              -5257.0789     
     6      (1,1,6)              -5257.0813     
     7      (1,1,7)              -5257.0841     
     8      (1,1,8)              -5257.0881     
     9      (1,1,9)              -5257.0924     
     10     (1,21,1)             -5257.0935     
     11     (1,21,2)             -5257.0861     
     12     (1,21,3)             -5257.0806     
     13     (1,21,4)             -5257.0774     
     14     (1,21,5)             -5257.0744     
     15     (1,21,6)             -5257.0704     
     16     (1,21,7)             -5257.0663     
     17     (1,21,8)             -5257.0667     
     18     (1,21,9)             -5257.0814     
 -----------------------------------------------




 HEAD WILL BE SAVED ON UNIT 1016 AT END OF TIME STEP    4, STRESS PERIOD    3


  VOLUME BUDGET FOR ENTIRE MODEL AT END OF TIME STEP    4, STRESS PERIOD   3
  ---------------------------------------------------------------------------------------------------

     CUMULATIVE VOLUME      L**3       RATES FOR THIS TIME STEP      L**3/T          PACKAGE NAME    
     ------------------                 ------------------------                     ----------------

           IN:                                      IN:
           ---                                      ---
              STO-SS =      266734.2548                STO-SS =           0.0000     STORAGE                          
              STO-SY =        7996.9318                STO-SY =           0.0000     STORAGE                          
                 WEL =           0.0000                   WEL =           0.0000     WEL-1                            
                RCHA =     5081565.6075                  RCHA =      256500.0000     RCH-1                            
                 CHD =           0.0000                   CHD =           0.0000     CHD-FROM-IBOUND                  

            TOTAL IN =     5356296.7941              TOTAL IN =      256500.0000

          OUT:                                     OUT:
          ----                                     ----
              STO-SS =     1432615.8075                STO-SS =      157158.8031     STORAGE                          
              STO-SY =       42983.7260                STO-SY =        4713.7756     STORAGE                          
                 WEL =           0.0000                   WEL =           0.0000     WEL-1                            
                RCHA =           0.0000                  RCHA =           0.0000     RCH-1                            
                 CHD =     3880698.3757                   CHD =       94627.4218     CHD-FROM-IBOUND                  

           TOTAL OUT =     5356297.9091             TOTAL OUT =      256500.0005

            IN - OUT =          -1.1150              IN - OUT =      -5.4877E-04

 PERCENT DISCREPANCY =          -0.00     PERCENT DISCREPANCY =          -0.00




         TIME SUMMARY AT END OF TIME STEP    4 IN STRESS PERIOD    3
                    SECONDS     MINUTES      HOURS       DAYS        YEARS
                    -----------------------------------------------------------
   TIME STEP LENGTH 2.53370E+05  4222.8      70.381      2.9325     8.02882E-03
 STRESS PERIOD TIME 7.87090E+05  13118.      218.64      9.1098     2.49414E-02
         TOTAL TIME 3.55189E+06  59198.      986.64      41.110     0.11255    


end timestep


start timestep kper="3" kstp="5" mode="normal"

 UBDSV1 SAVING     FLOW-JA-FACE ON UNIT   1015 AT TIME STEP      5, STRESS PERIOD      3
 UBDSV06 SAVING              WEL IN MODEL MUMODEL          PACKAGE MUMODEL         CONNECTED TO MODEL MUMODEL          PACKAGE WEL-1            ON UNIT   1015 AT TIME STEP      5, STRESS PERIOD      3
 UBDSV06 SAVING             RCHA IN MODEL MUMODEL          PACKAGE MUMODEL         CONNECTED TO MODEL MUMODEL          PACKAGE RCH-1            ON UNIT   1015 AT TIME STEP      5, STRESS PERIOD      3

 WEL PACKAGE (WEL-1) FLOW RATES   PERIOD      3   STEP        5
 -----------------------------------------------
   NUMBER   CELLID                    RATE      
 -----------------------------------------------
     1      (1,5,5)               0.0000000     
     2      (1,11,5)              0.0000000     
     3      (1,5,5)               0.0000000     
 -----------------------------------------------




 CHD PACKAGE (CHD-FROM-IBOUND) FLOW RATES   PERIOD      3   STEP        5
 -----------------------------------------------
   NUMBER   CELLID                    RATE      
 -----------------------------------------------
     1      (1,1,1)              -5263.1789     
     2      (1,1,2)              -5263.1715     
     3      (1,1,3)              -5263.1727     
     4      (1,1,4)              -5263.1758     
     5      (1,1,5)              -5263.1786     
     6      (1,1,6)              -5263.1809     
     7      (1,1,7)              -5263.1837     
     8      (1,1,8)              -5263.1877     
     9      (1,1,9)              -5263.1920     
     10     (1,21,1)             -5263.1930     
     11     (1,21,2)             -5263.1857     
     12     (1,21,3)             -5263.1803     
     13     (1,21,4)             -5263.1771     
     14     (1,21,5)             -5263.1741     
     15     (1,21,6)             -5263.1702     
     16     (1,21,7)             -5263.1661     
     17     (1,21,8)             -5263.1666     
     18     (1,21,9)             -5263.1811     
 -----------------------------------------------




 HEAD WILL BE SAVED ON UNIT 1016 AT END OF TIME STEP    5, STRESS PERIOD    3


  VOLUME BUDGET FOR ENTIRE MODEL AT END OF TIME STEP    5, STRESS PERIOD   3
  ---------------------------------------------------------------------------------------------------

     CUMULATIVE VOLUME      L**3       RATES FOR THIS TIME STEP      L**3/T          PACKAGE NAME    
     ------------------                 ------------------------                     ----------------

           IN:                                      IN:
           ---                                      ---
              STO-SS =      266734.2548                STO-SS =           0.0000     STORAGE                          
              STO-SY =        7996.9318                STO-SY =           0.0000     STORAGE                          
                 WEL =           0.0000                   WEL =           0.0000     WEL-1                            
                RCHA =     5984197.2007                  RCHA =      256500.0000     RCH-1                            
                 CHD =           0.0000                   CHD =           0.0000     CHD-FROM-IBOUND                  

            TOTAL IN =     6258928.3874              TOTAL IN =      256500.0000

          OUT:                                     OUT:
          ----                                     ----
              STO-SS =     1985293.0012                STO-SS =      157053.7762     STORAGE                          
              STO-SY =       59554.8763                STO-SY =        4709.0087     STORAGE                          
                 WEL =           0.0000                   WEL =           0.0000     WEL-1                            
                RCHA =           0.0000                  RCHA =           0.0000     RCH-1                            
                 CHD =     4214081.6282                   CHD =       94737.2160     CHD-FROM-IBOUND                  

           TOTAL OUT =     6258929.5057             TOTAL OUT =      256500.0009

            IN - OUT =          -1.1183              IN - OUT =      -9.3568E-04

 PERCENT DISCREPANCY =          -0.00     PERCENT DISCREPANCY =          -0.00




         TIME SUMMARY AT END OF TIME STEP    5 IN STRESS PERIOD    3
                    SECONDS     MINUTES      HOURS       DAYS        YEARS
                    -----------------------------------------------------------
   TIME STEP LENGTH 3.04044E+05  5067.4      84.457      3.5190     9.63458E-03
 STRESS PERIOD TIME 1.09113E+06  18186.      303.09      12.629     3.45760E-02
         TOTAL TIME 3.85593E+06  64266.      1071.1      44.629     0.12219    


end timestep


start timestep kper="3" kstp="6" mode="normal"

 UBDSV1 SAVING     FLOW-JA-FACE ON UNIT   1015 AT TIME STEP      6, STRESS PERIOD      3
 UBDSV06 SAVING              WEL IN MODEL MUMODEL          PACKAGE MUMODEL         CONNECTED TO MODEL MUMODEL          PACKAGE WEL-1            ON UNIT   1015 AT TIME STEP      6, STRESS PERIOD      3
 UBDSV06 SAVING             RCHA IN MODEL MUMODEL          PACKAGE MUMODEL         CONNECTED TO MODEL MUMODEL          PACKAGE RCH-1            ON UNIT   1015 AT TIME STEP      6, STRESS PERIOD      3

 WEL PACKAGE (WEL-1) FLOW RATES   PERIOD      3   STEP        6
 -----------------------------------------------
   NUMBER   CELLID                    RATE      
 -----------------------------------------------
     1      (1,5,5)               0.0000000     
     2      (1,11,5)              0.0000000     
     3      (1,5,5)               0.0000000     
 -----------------------------------------------




 CHD PACKAGE (CHD-FROM-IBOUND) FLOW RATES   PERIOD      3   STEP        6
 -----------------------------------------------
   NUMBER   CELLID                    RATE      
 -----------------------------------------------
     1      (1,1,1)              -5270.4430     
     2      (1,1,2)              -5270.4357     
     3      (1,1,3)              -5270.4368     
     4      (1,1,4)              -5270.4399     
     5      (1,1,5)              -5270.4426     
     6      (1,1,6)              -5270.4449     
     7      (1,1,7)              -5270.4477     
     8      (1,1,8)              -5270.4517     
     9      (1,1,9)              -5270.4560     
     10     (1,21,1)             -5270.4569     
     11     (1,21,2)             -5270.4496     
     12     (1,21,3)             -5270.4443     
     13     (1,21,4)             -5270.4411     
     14     (1,21,5)             -5270.4381     
     15     (1,21,6)             -5270.4342     
     16     (1,21,7)             -5270.4303     
     17     (1,21,8)             -5270.4309     
     18     (1,21,9)             -5270.4451     
 -----------------------------------------------




 HEAD WILL BE SAVED ON UNIT 1016 AT END OF TIME STEP    6, STRESS PERIOD    3


  VOLUME BUDGET FOR ENTIRE MODEL AT END OF TIME STEP    6, STRESS PERIOD   3
  ---------------------------------------------------------------------------------------------------

     CUMULATIVE VOLUME      L**3       RATES FOR THIS TIME STEP      L**3/T          PACKAGE NAME    
     ------------------                 ------------------------                     ----------------

           IN:                                      IN:
           ---                                      ---
              STO-SS =      266734.2548                STO-SS =           0.0000     STORAGE                          
              STO-SY =        7996.9318                STO-SY =           0.0000     STORAGE                          
                 WEL =           0.0000                   WEL =           0.0000     WEL-1                            
                RCHA =     7067355.1126                  RCHA =      256500.0000     RCH-1                            
                 CHD =           0.0000                   CHD =           0.0000     CHD-FROM-IBOUND                  

            TOTAL IN =     7342086.2992              TOTAL IN =      256500.0000

          OUT:                                     OUT:
          ----                                     ----
              STO-SS =     2647977.4465                STO-SS =      156928.6974     STORAGE                          
              STO-SY =       79416.2984                STO-SY =        4703.3352     STORAGE                          
                 WEL =           0.0000                   WEL =           0.0000     WEL-1                            
                RCHA =           0.0000                  RCHA =           0.0000     RCH-1                            
                 CHD =     4614693.6793                   CHD =       94867.9689     CHD-FROM-IBOUND                  

           TOTAL OUT =     7342087.4242             TOTAL OUT =      256500.0016

            IN - OUT =          -1.1250              IN - OUT =      -1.5814E-03

 PERCENT DISCREPANCY =          -0.00     PERCENT DISCREPANCY =          -0.00




         TIME SUMMARY AT END OF TIME STEP    6 IN STRESS PERIOD    3
                    SECONDS     MINUTES      HOURS       DAYS        YEARS
                    -----------------------------------------------------------
   TIME STEP LENGTH 3.64853E+05  6080.9      101.35      4.2228     1.15615E-02
 STRESS PERIOD TIME 1.45599E+06  24266.      404.44      16.852     4.61375E-02
         TOTAL TIME 4.22079E+06  70346.      1172.4      48.852     0.13375    


end timestep


start timestep kper="3" kstp="7" mode="normal"

 UBDSV1 SAVING     FLOW-JA-FACE ON UNIT   1015 AT TIME STEP      7, STRESS PERIOD      3
 UBDSV06 SAVING              WEL IN MODEL MUMODEL          PACKAGE MUMODEL         CONNECTED TO MODEL MUMODEL          PACKAGE WEL-1            ON UNIT   1015 AT TIME STEP      7, STRESS PERIOD      3
 UBDSV06 SAVING             RCHA IN MODEL MUMODEL          PACKAGE MUMODEL         CONNECTED TO MODEL MUMODEL          PACKAGE RCH-1            ON UNIT   1015 AT TIME STEP      7, STRESS PERIOD      3

 WEL PACKAGE (WEL-1) FLOW RATES   PERIOD      3   STEP        7
 -----------------------------------------------
   NUMBER   CELLID                    RATE      
 -----------------------------------------------
     1      (1,5,5)               0.0000000     
     2      (1,11,5)              0.0000000     
     3      (1,5,5)               0.0000000     
 -----------------------------------------------




 CHD PACKAGE (CHD-FROM-IBOUND) FLOW RATES   PERIOD      3   STEP        7
 -----------------------------------------------
   NUMBER   CELLID                    RATE      
 -----------------------------------------------
     1      (1,1,1)              -5279.0813     
     2      (1,1,2)              -5279.0741     
     3      (1,1,3)              -5279.0752     
     4      (1,1,4)              -5279.0782     
     5      (1,1,5)              -5279.0809     
     6      (1,1,6)              -5279.0832     
     7      (1,1,7)              -5279.0860     
     8      (1,1,8)              -5279.0900     
     9      (1,1,9)              -5279.0942     
     10     (1,21,1)             -5279.0950     
     11     (1,21,2)             -5279.0878     
     12     (1,21,3)             -5279.0825     
     13     (1,21,4)             -5279.0794     
     14     (1,21,5)             -5279.0765     
     15     (1,21,6)             -5279.0726     
     16     (1,21,7)             -5279.0687     
     17     (1,21,8)             -5279.0695     
     18     (1,21,9)             -5279.0834     
 -----------------------------------------------




 HEAD WILL BE SAVED ON UNIT 1016 AT END OF TIME STEP    7, STRESS PERIOD    3


  VOLUME BUDGET FOR ENTIRE MODEL AT END OF TIME STEP    7, STRESS PERIOD   3
  ---------------------------------------------------------------------------------------------------

     CUMULATIVE VOLUME      L**3       RATES FOR THIS TIME STEP      L**3/T          PACKAGE NAME    
     ------------------                 ------------------------                     ----------------

           IN:                                      IN:
           ---                                      ---
              STO-SS =      266734.2548                STO-SS =           0.0000     STORAGE                          
              STO-SY =        7996.9318                STO-SY =           0.0000     STORAGE                          
                 WEL =           0.0000                   WEL =           0.0000     WEL-1                            
                RCHA =     8367144.6069                  RCHA =      256500.0000     RCH-1                            
                 CHD =           0.0000                   CHD =           0.0000     CHD-FROM-IBOUND                  

            TOTAL IN =     8641875.7935              TOTAL IN =      256500.0000

          OUT:                                     OUT:
          ----                                     ----
              STO-SS =     3442445.0219                STO-SS =      156779.9509     STORAGE                          
              STO-SY =      103215.8398                STO-SY =        4696.5931     STORAGE                          
                 WEL =           0.0000                   WEL =           0.0000     WEL-1                            
                RCHA =           0.0000                  RCHA =           0.0000     RCH-1                            
                 CHD =     5096216.0703                   CHD =       95023.4587     CHD-FROM-IBOUND                  

           TOTAL OUT =     8641876.9320             TOTAL OUT =      256500.0027

            IN - OUT =          -1.1385              IN - OUT =      -2.6691E-03

 PERCENT DISCREPANCY =          -0.00     PERCENT DISCREPANCY =          -0.00




         TIME SUMMARY AT END OF TIME STEP    7 IN STRESS PERIOD    3
                    SECONDS     MINUTES      HOURS       DAYS        YEARS
                    -----------------------------------------------------------
   TIME STEP LENGTH 4.37824E+05  7297.1      121.62      5.0674     1.38738E-02
 STRESS PERIOD TIME 1.89381E+06  31564.      526.06      21.919     6.00113E-02
         TOTAL TIME 4.65861E+06  77644.      1294.1      53.919     0.14762    


end timestep


start timestep kper="3" kstp="8" mode="normal"

 UBDSV1 SAVING     FLOW-JA-FACE ON UNIT   1015 AT TIME STEP      8, STRESS PERIOD      3
 UBDSV06 SAVING              WEL IN MODEL MUMODEL          PACKAGE MUMODEL         CONNECTED TO MODEL MUMODEL          PACKAGE WEL-1            ON UNIT   1015 AT TIME STEP      8, STRESS PERIOD      3
 UBDSV06 SAVING             RCHA IN MODEL MUMODEL          PACKAGE MUMODEL         CONNECTED TO MODEL MUMODEL          PACKAGE RCH-1            ON UNIT   1015 AT TIME STEP      8, STRESS PERIOD      3

 WEL PACKAGE (WEL-1) FLOW RATES   PERIOD      3   STEP        8
 -----------------------------------------------
   NUMBER   CELLID                    RATE      
 -----------------------------------------------
     1      (1,5,5)               0.0000000     
     2      (1,11,5)              0.0000000     
     3      (1,5,5)               0.0000000     
 -----------------------------------------------




 CHD PACKAGE (CHD-FROM-IBOUND) FLOW RATES   PERIOD      3   STEP        8
 -----------------------------------------------
   NUMBER   CELLID                    RATE      
 -----------------------------------------------
     1      (1,1,1)              -5289.3366     
     2      (1,1,2)              -5289.3297     
     3      (1,1,3)              -5289.3306     
     4      (1,1,4)              -5289.3336     
     5      (1,1,5)              -5289.3363     
     6      (1,1,6)              -5289.3386     
     7      (1,1,7)              -5289.3413     
     8      (1,1,8)              -5289.3452     
     9      (1,1,9)              -5289.3494     
     10     (1,21,1)             -5289.3501     
     11     (1,21,2)             -5289.3431     
     12     (1,21,3)             -5289.3378     
     13     (1,21,4)             -5289.3347     
     14     (1,21,5)             -5289.3318     
     15     (1,21,6)             -5289.3280     
     16     (1,21,7)             -5289.3243     
     17     (1,21,8)             -5289.3252     
     18     (1,21,9)             -5289.3388     
 -----------------------------------------------




 HEAD WILL BE SAVED ON UNIT 1016 AT END OF TIME STEP    8, STRESS PERIOD    3


  VOLUME BUDGET FOR ENTIRE MODEL AT END OF TIME STEP    8, STRESS PERIOD   3
  ---------------------------------------------------------------------------------------------------

     CUMULATIVE VOLUME      L**3       RATES FOR THIS TIME STEP      L**3/T          PACKAGE NAME    
     ------------------                 ------------------------                     ----------------

           IN:                                      IN:
           ---                                      ---
              STO-SS =      266734.2548                STO-SS =           0.0000     STORAGE                          
              STO-SY =        7996.9318                STO-SY =           0.0000     STORAGE                          
                 WEL =           0.0000                   WEL =           0.0000     WEL-1                            
                RCHA =     9926892.0000                  RCHA =      256500.0000     RCH-1                            
                 CHD =           0.0000                   CHD =           0.0000     CHD-FROM-IBOUND                  

            TOTAL IN =    10201623.1866              TOTAL IN =      256500.0000

          OUT:                                     OUT:
          ----                                     ----
              STO-SS =     4394732.2451                STO-SS =      156603.3537     STORAGE                          
              STO-SY =      131726.6576                STO-SY =        4688.5956     STORAGE                          
                 WEL =           0.0000                   WEL =           0.0000     WEL-1                            
                RCHA =           0.0000                  RCHA =           0.0000     RCH-1                            
                 CHD =     5675165.4496                   CHD =       95208.0551     CHD-FROM-IBOUND                  

           TOTAL OUT =    10201624.3524             TOTAL OUT =      256500.0045

            IN - OUT =          -1.1658              IN - OUT =      -4.4834E-03

 PERCENT DISCREPANCY =          -0.00     PERCENT DISCREPANCY =          -0.00




         TIME SUMMARY AT END OF TIME STEP    8 IN STRESS PERIOD    3
                    SECONDS     MINUTES      HOURS       DAYS        YEARS
                    -----------------------------------------------------------
   TIME STEP LENGTH 5.25389E+05  8756.5      145.94      6.0809     1.66486E-02
 STRESS PERIOD TIME 2.41920E+06  40320.      672.00      28.000     7.66598E-02
         TOTAL TIME 5.18400E+06  86400.      1440.0      60.000     0.16427    


end timestep


start timestep kper="4" kstp="1" mode="normal"


 OUTPUT CONTROL FOR STRESS PERIOD 4 IS REPEATED USING SETTINGS FROM A PREVIOUS STRESS PERIOD.


 STRESS PERIOD 4 IS TRANSIENT


 REUSING WELS FROM LAST STRESS PERIOD

 REUSING CHDS FROM LAST STRESS PERIOD
 UBDSV1 SAVING     FLOW-JA-FACE ON UNIT   1015 AT TIME STEP      1, STRESS PERIOD      4
 UBDSV06 SAVING              WEL IN MODEL MUMODEL          PACKAGE MUMODEL         CONNECTED TO MODEL MUMODEL          PACKAGE WEL-1            ON UNIT   1015 AT TIME STEP      1, STRESS PERIOD      4
 UBDSV06 SAVING             RCHA IN MODEL MUMODEL          PACKAGE MUMODEL         CONNECTED TO MODEL MUMODEL          PACKAGE RCH-1            ON UNIT   1015 AT TIME STEP      1, STRESS PERIOD      4

 WEL PACKAGE (WEL-1) FLOW RATES   PERIOD      4   STEP        1
 -----------------------------------------------
   NUMBER   CELLID                    RATE      
 -----------------------------------------------
     1      (1,5,5)               0.0000000     
     2      (1,11,5)              0.0000000     
     3      (1,5,5)               0.0000000     
 -----------------------------------------------




 CHD PACKAGE (CHD-FROM-IBOUND) FLOW RATES   PERIOD      4   STEP        1
 -----------------------------------------------
   NUMBER   CELLID                    RATE      
 -----------------------------------------------
     1      (1,1,1)              -5294.2413     
     2      (1,1,2)              -5294.2344     
     3      (1,1,3)              -5294.2353     
     4      (1,1,4)              -5294.2383     
     5      (1,1,5)              -5294.2410     
     6      (1,1,6)              -5294.2432     
     7      (1,1,7)              -5294.2460     
     8      (1,1,8)              -5294.2499     
     9      (1,1,9)              -5294.2541     
     10     (1,21,1)             -5294.2548     
     11     (1,21,2)             -5294.2477     
     12     (1,21,3)             -5294.2425     
     13     (1,21,4)             -5294.2394     
     14     (1,21,5)             -5294.2365     
     15     (1,21,6)             -5294.2328     
     16     (1,21,7)             -5294.2290     
     17     (1,21,8)             -5294.2300     
     18     (1,21,9)             -5294.2435     
 -----------------------------------------------




 HEAD WILL BE SAVED ON UNIT 1016 AT END OF TIME STEP    1, STRESS PERIOD    4


  VOLUME BUDGET FOR ENTIRE MODEL AT END OF TIME STEP    1, STRESS PERIOD   4
  ---------------------------------------------------------------------------------------------------

     CUMULATIVE VOLUME      L**3       RATES FOR THIS TIME STEP      L**3/T          PACKAGE NAME    
     ------------------                 ------------------------                     ----------------

           IN:                                      IN:
           ---                                      ---
              STO-SS =      266734.2548                STO-SS =           0.0000     STORAGE                          
              STO-SY =        7996.9318                STO-SY =           0.0000     STORAGE                          
                 WEL =           0.0000                   WEL =           0.0000     WEL-1                            
                RCHA =    10569473.0964                  RCHA =      342000.0000     RCH-1                            
                 CHD =           0.0000                   CHD =           0.0000     CHD-FROM-IBOUND                  

            TOTAL IN =    10844204.2830              TOTAL IN =      342000.0000

          OUT:                                     OUT:
          ----                                     ----
              STO-SS =     4844783.3646                STO-SS =      239530.0511     STORAGE                          
              STO-SY =      145205.0955                STO-SY =        7173.6094     STORAGE                          
                 WEL =           0.0000                   WEL =           0.0000     WEL-1                            
                RCHA =           0.0000                  RCHA =           0.0000     RCH-1                            
                 CHD =     5854216.9891                   CHD =       95296.3398     CHD-FROM-IBOUND                  

           TOTAL OUT =    10844205.4492             TOTAL OUT =      342000.0002

            IN - OUT =          -1.1662              IN - OUT =      -2.3524E-04

 PERCENT DISCREPANCY =          -0.00     PERCENT DISCREPANCY =          -0.00




         TIME SUMMARY AT END OF TIME STEP    1 IN STRESS PERIOD    4
                    SECONDS     MINUTES      HOURS       DAYS        YEARS
                    -----------------------------------------------------------
   TIME STEP LENGTH 1.62336E+05  2705.6      45.093      1.8789     5.14413E-03
 STRESS PERIOD TIME 1.62336E+05  2705.6      45.093      1.8789     5.14413E-03
         TOTAL TIME 5.34634E+06  89106.      1485.1      61.879     0.16942    


end timestep


start timestep kper="4" kstp="2" mode="normal"

 UBDSV1 SAVING     FLOW-JA-FACE ON UNIT   1015 AT TIME STEP      2, STRESS PERIOD      4
 UBDSV06 SAVING              WEL IN MODEL MUMODEL          PACKAGE MUMODEL         CONNECTED TO MODEL MUMODEL          PACKAGE WEL-1            ON UNIT   1015 AT TIME STEP      2, STRESS PERIOD      4
 UBDSV06 SAVING             RCHA IN MODEL MUMODEL          PACKAGE MUMODEL         CONNECTED TO MODEL MUMODEL          PACKAGE RCH-1            ON UNIT   1015 AT TIME STEP      2, STRESS PERIOD      4

 WEL PACKAGE (WEL-1) FLOW RATES   PERIOD      4   STEP        2
 -----------------------------------------------
   NUMBER   CELLID                    RATE      
 -----------------------------------------------
     1      (1,5,5)               0.0000000     
     2      (1,11,5)              0.0000000     
     3      (1,5,5)               0.0000000     
 -----------------------------------------------




 CHD PACKAGE (CHD-FROM-IBOUND) FLOW RATES   PERIOD      4   STEP        2
 -----------------------------------------------
   NUMBER   CELLID                    RATE      
 -----------------------------------------------
     1      (1,1,1)              -5300.1027     
     2      (1,1,2)              -5300.0959     
     3      (1,1,3)              -5300.0967     
     4      (1,1,4)              -5300.0997     
     5      (1,1,5)              -5300.1023     
     6      (1,1,6)              -5300.1046     
     7      (1,1,7)              -5300.1074     
     8      (1,1,8)              -5300.1113     
     9      (1,1,9)              -5300.1155     
     10     (1,21,1)             -5300.1161     
     11     (1,21,2)             -5300.1091     
     12     (1,21,3)             -5300.1039     
     13     (1,21,4)             -5300.1008     
     14     (1,21,5)             -5300.0979     
     15     (1,21,6)             -5300.0942     
     16     (1,21,7)             -5300.0905     
     17     (1,21,8)             -5300.0915     
     18     (1,21,9)             -5300.1049     
 -----------------------------------------------




 HEAD WILL BE SAVED ON UNIT 1016 AT END OF TIME STEP    2, STRESS PERIOD    4


  VOLUME BUDGET FOR ENTIRE MODEL AT END OF TIME STEP    2, STRESS PERIOD   4
  ---------------------------------------------------------------------------------------------------

     CUMULATIVE VOLUME      L**3       RATES FOR THIS TIME STEP      L**3/T          PACKAGE NAME    
     ------------------                 ------------------------                     ----------------

           IN:                                      IN:
           ---                                      ---
              STO-SS =      266734.2548                STO-SS =           0.0000     STORAGE                          
              STO-SY =        7996.9318                STO-SY =           0.0000     STORAGE                          
                 WEL =           0.0000                   WEL =           0.0000     WEL-1                            
                RCHA =    11340570.4120                  RCHA =      342000.0000     RCH-1                            
                 CHD =           0.0000                   CHD =           0.0000     CHD-FROM-IBOUND                  

            TOTAL IN =    11615301.5987              TOTAL IN =      342000.0000

          OUT:                                     OUT:
          ----                                     ----
              STO-SS =     5384617.7318                STO-SS =      239429.3818     STORAGE                          
              STO-SY =      161368.3180                STO-SY =        7168.7736     STORAGE                          
                 WEL =           0.0000                   WEL =           0.0000     WEL-1                            
                RCHA =           0.0000                  RCHA =           0.0000     RCH-1                            
                 CHD =     6069316.7160                   CHD =       95401.8450     CHD-FROM-IBOUND                  

           TOTAL OUT =    11615302.7658             TOTAL OUT =      342000.0004

            IN - OUT =          -1.1671              IN - OUT =      -4.0595E-04

 PERCENT DISCREPANCY =          -0.00     PERCENT DISCREPANCY =          -0.00




         TIME SUMMARY AT END OF TIME STEP    2 IN STRESS PERIOD    4
                    SECONDS     MINUTES      HOURS       DAYS        YEARS
                    -----------------------------------------------------------
   TIME STEP LENGTH 1.94804E+05  3246.7      54.112      2.2547     6.17295E-03
 STRESS PERIOD TIME 3.57140E+05  5952.3      99.206      4.1336     1.13171E-02
         TOTAL TIME 5.54114E+06  92352.      1539.2      64.134     0.17559    


end timestep


start timestep kper="4" kstp="3" mode="normal"

 UBDSV1 SAVING     FLOW-JA-FACE ON UNIT   1015 AT TIME STEP      3, STRESS PERIOD      4
 UBDSV06 SAVING              WEL IN MODEL MUMODEL          PACKAGE MUMODEL         CONNECTED TO MODEL MUMODEL          PACKAGE WEL-1            ON UNIT   1015 AT TIME STEP      3, STRESS PERIOD      4
 UBDSV06 SAVING             RCHA IN MODEL MUMODEL          PACKAGE MUMODEL         CONNECTED TO MODEL MUMODEL          PACKAGE RCH-1            ON UNIT   1015 AT TIME STEP      3, STRESS PERIOD      4

 WEL PACKAGE (WEL-1) FLOW RATES   PERIOD      4   STEP        3
 -----------------------------------------------
   NUMBER   CELLID                    RATE      
 -----------------------------------------------
     1      (1,5,5)               0.0000000     
     2      (1,11,5)              0.0000000     
     3      (1,5,5)               0.0000000     
 -----------------------------------------------




 CHD PACKAGE (CHD-FROM-IBOUND) FLOW RATES   PERIOD      4   STEP        3
 -----------------------------------------------
   NUMBER   CELLID                    RATE      
 -----------------------------------------------
     1      (1,1,1)              -5307.1025     
     2      (1,1,2)              -5307.0958     
     3      (1,1,3)              -5307.0966     
     4      (1,1,4)              -5307.0995     
     5      (1,1,5)              -5307.1021     
     6      (1,1,6)              -5307.1044     
     7      (1,1,7)              -5307.1072     
     8      (1,1,8)              -5307.1111     
     9      (1,1,9)              -5307.1152     
     10     (1,21,1)             -5307.1158     
     11     (1,21,2)             -5307.1088     
     12     (1,21,3)             -5307.1036     
     13     (1,21,4)             -5307.1006     
     14     (1,21,5)             -5307.0977     
     15     (1,21,6)             -5307.0940     
     16     (1,21,7)             -5307.0904     
     17     (1,21,8)             -5307.0914     
     18     (1,21,9)             -5307.1047     
 -----------------------------------------------




 HEAD WILL BE SAVED ON UNIT 1016 AT END OF TIME STEP    3, STRESS PERIOD    4


  VOLUME BUDGET FOR ENTIRE MODEL AT END OF TIME STEP    3, STRESS PERIOD   4
  ---------------------------------------------------------------------------------------------------

     CUMULATIVE VOLUME      L**3       RATES FOR THIS TIME STEP      L**3/T          PACKAGE NAME    
     ------------------                 ------------------------                     ----------------

           IN:                                      IN:
           ---                                      ---
              STO-SS =      266734.2548                STO-SS =           0.0000     STORAGE                          
              STO-SY =        7996.9318                STO-SY =           0.0000     STORAGE                          
                 WEL =           0.0000                   WEL =           0.0000     WEL-1                            
                RCHA =    12265887.1908                  RCHA =      342000.0000     RCH-1                            
                 CHD =           0.0000                   CHD =           0.0000     CHD-FROM-IBOUND                  

            TOTAL IN =    12540618.3774              TOTAL IN =      342000.0000

          OUT:                                     OUT:
          ----                                     ----
              STO-SS =     6032093.6969                STO-SS =      239309.1589     STORAGE                          
              STO-SY =      180748.5648                STO-SY =        7163.0003     STORAGE                          
                 WEL =           0.0000                   WEL =           0.0000     WEL-1                            
                RCHA =           0.0000                  RCHA =           0.0000     RCH-1                            
                 CHD =     6327777.2848                   CHD =       95527.8414     CHD-FROM-IBOUND                  

           TOTAL OUT =    12540619.5464             TOTAL OUT =      342000.0007

            IN - OUT =          -1.1690              IN - OUT =      -6.9176E-04

 PERCENT DISCREPANCY =          -0.00     PERCENT DISCREPANCY =          -0.00




         TIME SUMMARY AT END OF TIME STEP    3 IN STRESS PERIOD    4
                    SECONDS     MINUTES      HOURS       DAYS        YEARS
                    -----------------------------------------------------------
   TIME STEP LENGTH 2.33764E+05  3896.1      64.935      2.7056     7.40754E-03
 STRESS PERIOD TIME 5.90904E+05  9848.4      164.14      6.8392     1.87246E-02
         TOTAL TIME 5.77490E+06  96248.      1604.1      66.839     0.18300    


end timestep


start timestep kper="4" kstp="4" mode="normal"

 UBDSV1 SAVING     FLOW-JA-FACE ON UNIT   1015 AT TIME STEP      4, STRESS PERIOD      4
 UBDSV06 SAVING              WEL IN MODEL MUMODEL          PACKAGE MUMODEL         CONNECTED TO MODEL MUMODEL          PACKAGE WEL-1            ON UNIT   1015 AT TIME STEP      4, STRESS PERIOD      4
 UBDSV06 SAVING             RCHA IN MODEL MUMODEL          PACKAGE MUMODEL         CONNECTED TO MODEL MUMODEL          PACKAGE RCH-1            ON UNIT   1015 AT TIME STEP      4, STRESS PERIOD      4

 WEL PACKAGE (WEL-1) FLOW RATES   PERIOD      4   STEP        4
 -----------------------------------------------
   NUMBER   CELLID                    RATE      
 -----------------------------------------------
     1      (1,5,5)               0.0000000     
     2      (1,11,5)              0.0000000     
     3      (1,5,5)               0.0000000     
 -----------------------------------------------




 CHD PACKAGE (CHD-FROM-IBOUND) FLOW RATES   PERIOD      4   STEP        4
 -----------------------------------------------
   NUMBER   CELLID                    RATE      
 -----------------------------------------------
     1      (1,1,1)              -5315.4541     
     2      (1,1,2)              -5315.4474     
     3      (1,1,3)              -5315.4482     
     4      (1,1,4)              -5315.4511     
     5      (1,1,5)              -5315.4537     
     6      (1,1,6)              -5315.4560     
     7      (1,1,7)              -5315.4587     
     8      (1,1,8)              -5315.4626     
     9      (1,1,9)              -5315.4667     
     10     (1,21,1)             -5315.4672     
     11     (1,21,2)             -5315.4603     
     12     (1,21,3)             -5315.4552     
     13     (1,21,4)             -5315.4521     
     14     (1,21,5)             -5315.4493     
     15     (1,21,6)             -5315.4456     
     16     (1,21,7)             -5315.4420     
     17     (1,21,8)             -5315.4432     
     18     (1,21,9)             -5315.4562     
 -----------------------------------------------




 HEAD WILL BE SAVED ON UNIT 1016 AT END OF TIME STEP    4, STRESS PERIOD    4


  VOLUME BUDGET FOR ENTIRE MODEL AT END OF TIME STEP    4, STRESS PERIOD   4
  ---------------------------------------------------------------------------------------------------

     CUMULATIVE VOLUME      L**3       RATES FOR THIS TIME STEP      L**3/T          PACKAGE NAME    
     ------------------                 ------------------------                     ----------------

           IN:                                      IN:
           ---                                      ---
              STO-SS =      266734.2548                STO-SS =           0.0000     STORAGE                          
              STO-SY =        7996.9318                STO-SY =           0.0000     STORAGE                          
                 WEL =           0.0000                   WEL =           0.0000     WEL-1                            
                RCHA =    13376267.3254                  RCHA =      342000.0000     RCH-1                            
                 CHD =           0.0000                   CHD =           0.0000     CHD-FROM-IBOUND                  

            TOTAL IN =    13650998.5120              TOTAL IN =      342000.0000

          OUT:                                     OUT:
          ----                                     ----
              STO-SS =     6808599.1393                STO-SS =      239165.7173     STORAGE                          
              STO-SY =      203982.5044                STO-SY =        7156.1145     STORAGE                          
                 WEL =           0.0000                   WEL =           0.0000     WEL-1                            
                RCHA =           0.0000                  RCHA =           0.0000     RCH-1                            
                 CHD =     6638418.0411                   CHD =       95678.1694     CHD-FROM-IBOUND                  

           TOTAL OUT =    13650999.6848             TOTAL OUT =      342000.0012

            IN - OUT =          -1.1728              IN - OUT =      -1.1717E-03

 PERCENT DISCREPANCY =          -0.00     PERCENT DISCREPANCY =          -0.00




         TIME SUMMARY AT END OF TIME STEP    4 IN STRESS PERIOD    4
                    SECONDS     MINUTES      HOURS       DAYS        YEARS
                    -----------------------------------------------------------
   TIME STEP LENGTH 2.80517E+05  4675.3      77.921      3.2467     8.88905E-03
 STRESS PERIOD TIME 8.71421E+05  14524.      242.06      10.086     2.76137E-02
         TOTAL TIME 6.05542E+06 1.00924E+05  1682.1      70.086     0.19188    


end timestep


start timestep kper="4" kstp="5" mode="normal"

 UBDSV1 SAVING     FLOW-JA-FACE ON UNIT   1015 AT TIME STEP      5, STRESS PERIOD      4
 UBDSV06 SAVING              WEL IN MODEL MUMODEL          PACKAGE MUMODEL         CONNECTED TO MODEL MUMODEL          PACKAGE WEL-1            ON UNIT   1015 AT TIME STEP      5, STRESS PERIOD      4
 UBDSV06 SAVING             RCHA IN MODEL MUMODEL          PACKAGE MUMODEL         CONNECTED TO MODEL MUMODEL          PACKAGE RCH-1            ON UNIT   1015 AT TIME STEP      5, STRESS PERIOD      4

 WEL PACKAGE (WEL-1) FLOW RATES   PERIOD      4   STEP        5
 -----------------------------------------------
   NUMBER   CELLID                    RATE      
 -----------------------------------------------
     1      (1,5,5)               0.0000000     
     2      (1,11,5)              0.0000000     
     3      (1,5,5)               0.0000000     
 -----------------------------------------------




 CHD PACKAGE (CHD-FROM-IBOUND) FLOW RATES   PERIOD      4   STEP        5
 -----------------------------------------------
   NUMBER   CELLID                    RATE      
 -----------------------------------------------
     1      (1,1,1)              -5325.4075     
     2      (1,1,2)              -5325.4009     
     3      (1,1,3)              -5325.4016     
     4      (1,1,4)              -5325.4045     
     5      (1,1,5)              -5325.4071     
     6      (1,1,6)              -5325.4094     
     7      (1,1,7)              -5325.4121     
     8      (1,1,8)              -5325.4159     
     9      (1,1,9)              -5325.4201     
     10     (1,21,1)             -5325.4205     
     11     (1,21,2)             -5325.4136     
     12     (1,21,3)             -5325.4085     
     13     (1,21,4)             -5325.4055     
     14     (1,21,5)             -5325.4027     
     15     (1,21,6)             -5325.3991     
     16     (1,21,7)             -5325.3956     
     17     (1,21,8)             -5325.3968     
     18     (1,21,9)             -5325.4096     
 -----------------------------------------------




 HEAD WILL BE SAVED ON UNIT 1016 AT END OF TIME STEP    5, STRESS PERIOD    4


  VOLUME BUDGET FOR ENTIRE MODEL AT END OF TIME STEP    5, STRESS PERIOD   4
  ---------------------------------------------------------------------------------------------------

     CUMULATIVE VOLUME      L**3       RATES FOR THIS TIME STEP      L**3/T          PACKAGE NAME    
     ------------------                 ------------------------                     ----------------

           IN:                                      IN:
           ---                                      ---
              STO-SS =      266734.2548                STO-SS =           0.0000     STORAGE                          
              STO-SY =        7996.9318                STO-SY =           0.0000     STORAGE                          
                 WEL =           0.0000                   WEL =           0.0000     WEL-1                            
                RCHA =    14708723.4868                  RCHA =      342000.0000     RCH-1                            
                 CHD =           0.0000                   CHD =           0.0000     CHD-FROM-IBOUND                  

            TOTAL IN =    14983454.6734              TOTAL IN =      342000.0000

          OUT:                                     OUT:
          ----                                     ----
              STO-SS =     7739739.6074                STO-SS =      238994.7597     STORAGE                          
              STO-SY =      231831.2713                STO-SY =        7147.9112     STORAGE                          
                 WEL =           0.0000                   WEL =           0.0000     WEL-1                            
                RCHA =           0.0000                  RCHA =           0.0000     RCH-1                            
                 CHD =     7011884.9753                   CHD =       95857.3311     CHD-FROM-IBOUND                  

           TOTAL OUT =    14983455.8540             TOTAL OUT =      342000.0020

            IN - OUT =          -1.1806              IN - OUT =      -1.9911E-03

 PERCENT DISCREPANCY =          -0.00     PERCENT DISCREPANCY =          -0.00




         TIME SUMMARY AT END OF TIME STEP    5 IN STRESS PERIOD    4
                    SECONDS     MINUTES      HOURS       DAYS        YEARS
                    -----------------------------------------------------------
   TIME STEP LENGTH 3.36621E+05  5610.3      93.506      3.8961     1.06669E-02
 STRESS PERIOD TIME 1.20804E+06  20134.      335.57      13.982     3.82805E-02
         TOTAL TIME 6.39204E+06 1.06534E+05  1775.6      73.982     0.20255    


end timestep


start timestep kper="4" kstp="6" mode="normal"

 UBDSV1 SAVING     FLOW-JA-FACE ON UNIT   1015 AT TIME STEP      6, STRESS PERIOD      4
 UBDSV06 SAVING              WEL IN MODEL MUMODEL          PACKAGE MUMODEL         CONNECTED TO MODEL MUMODEL          PACKAGE WEL-1            ON UNIT   1015 AT TIME STEP      6, STRESS PERIOD      4
 UBDSV06 SAVING             RCHA IN MODEL MUMODEL          PACKAGE MUMODEL         CONNECTED TO MODEL MUMODEL          PACKAGE RCH-1            ON UNIT   1015 AT TIME STEP      6, STRESS PERIOD      4

 WEL PACKAGE (WEL-1) FLOW RATES   PERIOD      4   STEP        6
 -----------------------------------------------
   NUMBER   CELLID                    RATE      
 -----------------------------------------------
     1      (1,5,5)               0.0000000     
     2      (1,11,5)              0.0000000     
     3      (1,5,5)               0.0000000     
 -----------------------------------------------




 CHD PACKAGE (CHD-FROM-IBOUND) FLOW RATES   PERIOD      4   STEP        6
 -----------------------------------------------
   NUMBER   CELLID                    RATE      
 -----------------------------------------------
     1      (1,1,1)              -5337.2547     
     2      (1,1,2)              -5337.2483     
     3      (1,1,3)              -5337.2489     
     4      (1,1,4)              -5337.2517     
     5      (1,1,5)              -5337.2543     
     6      (1,1,6)              -5337.2565     
     7      (1,1,7)              -5337.2592     
     8      (1,1,8)              -5337.2631     
     9      (1,1,9)              -5337.2672     
     10     (1,21,1)             -5337.2675     
     11     (1,21,2)             -5337.2608     
     12     (1,21,3)             -5337.2557     
     13     (1,21,4)             -5337.2527     
     14     (1,21,5)             -5337.2499     
     15     (1,21,6)             -5337.2463     
     16     (1,21,7)             -5337.2429     
     17     (1,21,8)             -5337.2442     
     18     (1,21,9)             -5337.2569     
 -----------------------------------------------




 HEAD WILL BE SAVED ON UNIT 1016 AT END OF TIME STEP    6, STRESS PERIOD    4


  VOLUME BUDGET FOR ENTIRE MODEL AT END OF TIME STEP    6, STRESS PERIOD   4
  ---------------------------------------------------------------------------------------------------

     CUMULATIVE VOLUME      L**3       RATES FOR THIS TIME STEP      L**3/T          PACKAGE NAME    
     ------------------                 ------------------------                     ----------------

           IN:                                      IN:
           ---                                      ---
              STO-SS =      266734.2548                STO-SS =           0.0000     STORAGE                          
              STO-SY =        7996.9318                STO-SY =           0.0000     STORAGE                          
                 WEL =           0.0000                   WEL =           0.0000     WEL-1                            
                RCHA =    16307670.8805                  RCHA =      342000.0000     RCH-1                            
                 CHD =           0.0000                   CHD =           0.0000     CHD-FROM-IBOUND                  

            TOTAL IN =    16582402.0672              TOTAL IN =      342000.0000

          OUT:                                     OUT:
          ----                                     ----
              STO-SS =     8856156.7999                STO-SS =      238791.2706     STORAGE                          
              STO-SY =      265204.1635                STO-SY =        7138.1518     STORAGE                          
                 WEL =           0.0000                   WEL =           0.0000     WEL-1                            
                RCHA =           0.0000                  RCHA =           0.0000     RCH-1                            
                 CHD =     7461042.3001                   CHD =       96070.5810     CHD-FROM-IBOUND                  

           TOTAL OUT =    16582403.2635             TOTAL OUT =      342000.0034

            IN - OUT =          -1.1963              IN - OUT =      -3.3707E-03

 PERCENT DISCREPANCY =          -0.00     PERCENT DISCREPANCY =          -0.00




         TIME SUMMARY AT END OF TIME STEP    6 IN STRESS PERIOD    4
                    SECONDS     MINUTES      HOURS       DAYS        YEARS
                    -----------------------------------------------------------
   TIME STEP LENGTH 4.03945E+05  6732.4      112.21      4.6753     1.28002E-02
 STRESS PERIOD TIME 1.61199E+06  26866.      447.77      18.657     5.10808E-02
         TOTAL TIME 6.79599E+06 1.13266E+05  1887.8      78.657     0.21535    


end timestep


start timestep kper="4" kstp="7" mode="normal"

 UBDSV1 SAVING     FLOW-JA-FACE ON UNIT   1015 AT TIME STEP      7, STRESS PERIOD      4
 UBDSV06 SAVING              WEL IN MODEL MUMODEL          PACKAGE MUMODEL         CONNECTED TO MODEL MUMODEL          PACKAGE WEL-1            ON UNIT   1015 AT TIME STEP      7, STRESS PERIOD      4
 UBDSV06 SAVING             RCHA IN MODEL MUMODEL          PACKAGE MUMODEL         CONNECTED TO MODEL MUMODEL          PACKAGE RCH-1            ON UNIT   1015 AT TIME STEP      7, STRESS PERIOD      4

 WEL PACKAGE (WEL-1) FLOW RATES   PERIOD      4   STEP        7
 -----------------------------------------------
   NUMBER   CELLID                    RATE      
 -----------------------------------------------
     1      (1,5,5)               0.0000000     
     2      (1,11,5)              0.0000000     
     3      (1,5,5)               0.0000000     
 -----------------------------------------------




 CHD PACKAGE (CHD-FROM-IBOUND) FLOW RATES   PERIOD      4   STEP        7
 -----------------------------------------------
   NUMBER   CELLID                    RATE      
 -----------------------------------------------
     1      (1,1,1)              -5351.3346     
     2      (1,1,2)              -5351.3283     
     3      (1,1,3)              -5351.3289     
     4      (1,1,4)              -5351.3316     
     5      (1,1,5)              -5351.3342     
     6      (1,1,6)              -5351.3364     
     7      (1,1,7)              -5351.3391     
     8      (1,1,8)              -5351.3429     
     9      (1,1,9)              -5351.3470     
     10     (1,21,1)             -5351.3472     
     11     (1,21,2)             -5351.3406     
     12     (1,21,3)             -5351.3356     
     13     (1,21,4)             -5351.3326     
     14     (1,21,5)             -5351.3299     
     15     (1,21,6)             -5351.3263     
     16     (1,21,7)             -5351.3230     
     17     (1,21,8)             -5351.3244     
     18     (1,21,9)             -5351.3367     
 -----------------------------------------------




 HEAD WILL BE SAVED ON UNIT 1016 AT END OF TIME STEP    7, STRESS PERIOD    4


  VOLUME BUDGET FOR ENTIRE MODEL AT END OF TIME STEP    7, STRESS PERIOD   4
  ---------------------------------------------------------------------------------------------------

     CUMULATIVE VOLUME      L**3       RATES FOR THIS TIME STEP      L**3/T          PACKAGE NAME    
     ------------------                 ------------------------                     ----------------

           IN:                                      IN:
           ---                                      ---
              STO-SS =      266734.2548                STO-SS =           0.0000     STORAGE                          
              STO-SY =        7996.9318                STO-SY =           0.0000     STORAGE                          
                 WEL =           0.0000                   WEL =           0.0000     WEL-1                            
                RCHA =    18226407.7530                  RCHA =      342000.0000     RCH-1                            
                 CHD =           0.0000                   CHD =           0.0000     CHD-FROM-IBOUND                  

            TOTAL IN =    18501138.9396              TOTAL IN =      342000.0000

          OUT:                                     OUT:
          ----                                     ----
              STO-SS =    10194500.6033                STO-SS =      238549.4266     STORAGE                          
              STO-SY =      305186.5986                STO-SY =        7126.5597     STORAGE                          
                 WEL =           0.0000                   WEL =           0.0000     WEL-1                            
                RCHA =           0.0000                  RCHA =           0.0000     RCH-1                            
                 CHD =     8001452.9659                   CHD =       96324.0194     CHD-FROM-IBOUND                  

           TOTAL OUT =    18501140.1679             TOTAL OUT =      342000.0057

            IN - OUT =          -1.2282              IN - OUT =      -5.6828E-03

 PERCENT DISCREPANCY =          -0.00     PERCENT DISCREPANCY =          -0.00




         TIME SUMMARY AT END OF TIME STEP    7 IN STRESS PERIOD    4
                    SECONDS     MINUTES      HOURS       DAYS        YEARS
                    -----------------------------------------------------------
   TIME STEP LENGTH 4.84734E+05  8078.9      134.65      5.6103     1.53603E-02
 STRESS PERIOD TIME 2.09672E+06  34945.      582.42      24.268     6.64410E-02
         TOTAL TIME 7.28072E+06 1.21345E+05  2022.4      84.268     0.23071    


end timestep


start timestep kper="4" kstp="8" mode="normal"

 UBDSV1 SAVING     FLOW-JA-FACE ON UNIT   1015 AT TIME STEP      8, STRESS PERIOD      4
 UBDSV06 SAVING              WEL IN MODEL MUMODEL          PACKAGE MUMODEL         CONNECTED TO MODEL MUMODEL          PACKAGE WEL-1            ON UNIT   1015 AT TIME STEP      8, STRESS PERIOD      4
 UBDSV06 SAVING             RCHA IN MODEL MUMODEL          PACKAGE MUMODEL         CONNECTED TO MODEL MUMODEL          PACKAGE RCH-1            ON UNIT   1015 AT TIME STEP      8, STRESS PERIOD      4

 WEL PACKAGE (WEL-1) FLOW RATES   PERIOD      4   STEP        8
 -----------------------------------------------
   NUMBER   CELLID                    RATE      
 -----------------------------------------------
     1      (1,5,5)               0.0000000     
     2      (1,11,5)              0.0000000     
     3      (1,5,5)               0.0000000     
 -----------------------------------------------




 CHD PACKAGE (CHD-FROM-IBOUND) FLOW RATES   PERIOD      4   STEP        8
 -----------------------------------------------
   NUMBER   CELLID                    RATE      
 -----------------------------------------------
     1      (1,1,1)              -5368.0383     
     2      (1,1,2)              -5368.0321     
     3      (1,1,3)              -5368.0326     
     4      (1,1,4)              -5368.0353     
     5      (1,1,5)              -5368.0378     
     6      (1,1,6)              -5368.0400     
     7      (1,1,7)              -5368.0427     
     8      (1,1,8)              -5368.0465     
     9      (1,1,9)              -5368.0505     
     10     (1,21,1)             -5368.0506     
     11     (1,21,2)             -5368.0441     
     12     (1,21,3)             -5368.0392     
     13     (1,21,4)             -5368.0362     
     14     (1,21,5)             -5368.0335     
     15     (1,21,6)             -5368.0300     
     16     (1,21,7)             -5368.0269     
     17     (1,21,8)             -5368.0284     
     18     (1,21,9)             -5368.0404     
 -----------------------------------------------




 HEAD WILL BE SAVED ON UNIT 1016 AT END OF TIME STEP    8, STRESS PERIOD    4


  VOLUME BUDGET FOR ENTIRE MODEL AT END OF TIME STEP    8, STRESS PERIOD   4
  ---------------------------------------------------------------------------------------------------

     CUMULATIVE VOLUME      L**3       RATES FOR THIS TIME STEP      L**3/T          PACKAGE NAME    
     ------------------                 ------------------------                     ----------------

           IN:                                      IN:
           ---                                      ---
              STO-SS =      266734.2548                STO-SS =           0.0000     STORAGE                          
              STO-SY =        7996.9318                STO-SY =           0.0000     STORAGE                          
                 WEL =           0.0000                   WEL =           0.0000     WEL-1                            
                RCHA =    20528892.0000                  RCHA =      342000.0000     RCH-1                            
                 CHD =           0.0000                   CHD =           0.0000     CHD-FROM-IBOUND                  

            TOTAL IN =    20803623.1866              TOTAL IN =      342000.0000

          OUT:                                     OUT:
          ----                                     ----
              STO-SS =    11798581.5118                STO-SS =      238262.5077     STORAGE                          
              STO-SY =      353072.9970                STO-SY =        7112.8166     STORAGE                          
                 WEL =           0.0000                   WEL =           0.0000     WEL-1                            
                RCHA =           0.0000                  RCHA =           0.0000     RCH-1                            
                 CHD =     8651969.9702                   CHD =       96624.6852     CHD-FROM-IBOUND                  

           TOTAL OUT =    20803624.4790             TOTAL OUT =      342000.0095

            IN - OUT =          -1.2924              IN - OUT =      -9.5336E-03

 PERCENT DISCREPANCY =          -0.00     PERCENT DISCREPANCY =          -0.00




         TIME SUMMARY AT END OF TIME STEP    8 IN STRESS PERIOD    4
                    SECONDS     MINUTES      HOURS       DAYS        YEARS
                    -----------------------------------------------------------
   TIME STEP LENGTH 5.81680E+05  9694.7      161.58      6.7324     1.84323E-02
 STRESS PERIOD TIME 2.67840E+06  44640.      744.00      31.000     8.48734E-02
         TOTAL TIME 7.86240E+06 1.31040E+05  2184.0      91.000     0.24914    


end timestep


start timestep kper="5" kstp="1" mode="normal"


 OUTPUT CONTROL FOR STRESS PERIOD 5 IS REPEATED USING SETTINGS FROM A PREVIOUS STRESS PERIOD.


 STRESS PERIOD 5 IS TRANSIENT


 REUSING WELS FROM LAST STRESS PERIOD

 REUSING CHDS FROM LAST STRESS PERIOD
 UBDSV1 SAVING     FLOW-JA-FACE ON UNIT   1015 AT TIME STEP      1, STRESS PERIOD      5
 UBDSV06 SAVING              WEL IN MODEL MUMODEL          PACKAGE MUMODEL         CONNECTED TO MODEL MUMODEL          PACKAGE WEL-1            ON UNIT   1015 AT TIME STEP      1, STRESS PERIOD      5
 UBDSV06 SAVING             RCHA IN MODEL MUMODEL          PACKAGE MUMODEL         CONNECTED TO MODEL MUMODEL          PACKAGE RCH-1            ON UNIT   1015 AT TIME STEP      1, STRESS PERIOD      5

 WEL PACKAGE (WEL-1) FLOW RATES   PERIOD      5   STEP        1
 -----------------------------------------------
   NUMBER   CELLID                    RATE      
 -----------------------------------------------
     1      (1,5,5)               0.0000000     
     2      (1,11,5)              0.0000000     
     3      (1,5,5)               0.0000000     
 -----------------------------------------------




 CHD PACKAGE (CHD-FROM-IBOUND) FLOW RATES   PERIOD      5   STEP        1
 -----------------------------------------------
   NUMBER   CELLID                    RATE      
 -----------------------------------------------
     1      (1,1,1)              -5370.8472     
     2      (1,1,2)              -5370.8411     
     3      (1,1,3)              -5370.8415     
     4      (1,1,4)              -5370.8442     
     5      (1,1,5)              -5370.8467     
     6      (1,1,6)              -5370.8489     
     7      (1,1,7)              -5370.8516     
     8      (1,1,8)              -5370.8554     
     9      (1,1,9)              -5370.8594     
     10     (1,21,1)             -5370.8594     
     11     (1,21,2)             -5370.8530     
     12     (1,21,3)             -5370.8480     
     13     (1,21,4)             -5370.8451     
     14     (1,21,5)             -5370.8424     
     15     (1,21,6)             -5370.8389     
     16     (1,21,7)             -5370.8358     
     17     (1,21,8)             -5370.8374     
     18     (1,21,9)             -5370.8493     
 -----------------------------------------------




 HEAD WILL BE SAVED ON UNIT 1016 AT END OF TIME STEP    1, STRESS PERIOD    5


  VOLUME BUDGET FOR ENTIRE MODEL AT END OF TIME STEP    1, STRESS PERIOD   5
  ---------------------------------------------------------------------------------------------------

     CUMULATIVE VOLUME      L**3       RATES FOR THIS TIME STEP      L**3/T          PACKAGE NAME    
     ------------------                 ------------------------                     ----------------

           IN:                                      IN:
           ---                                      ---
              STO-SS =      266734.2548                STO-SS =           0.0000     STORAGE                          
              STO-SY =        7996.9318                STO-SY =           0.0000     STORAGE                          
                 WEL =           0.0000                   WEL =           0.0000     WEL-1                            
                RCHA =    20995281.5054                  RCHA =      256500.0000     RCH-1                            
                 CHD =           0.0000                   CHD =           0.0000     CHD-FROM-IBOUND                  

            TOTAL IN =    21270012.6921              TOTAL IN =      256500.0000

          OUT:                                     OUT:
          ----                                     ----
              STO-SS =    12080779.8636                STO-SS =      155200.4845     STORAGE                          
              STO-SY =      361481.2275                STO-SY =        4624.2703     STORAGE                          
                 WEL =           0.0000                   WEL =           0.0000     WEL-1                            
                RCHA =           0.0000                  RCHA =           0.0000     RCH-1                            
                 CHD =     8827752.8936                   CHD =       96675.2453     CHD-FROM-IBOUND                  

           TOTAL OUT =    21270013.9847             TOTAL OUT =      256500.0001

            IN - OUT =          -1.2926              IN - OUT =      -1.0856E-04

 PERCENT DISCREPANCY =          -0.00     PERCENT DISCREPANCY =          -0.00




         TIME SUMMARY AT END OF TIME STEP    1 IN STRESS PERIOD    5
                    SECONDS     MINUTES      HOURS       DAYS        YEARS
                    -----------------------------------------------------------
   TIME STEP LENGTH 1.57100E+05  2618.3      43.639      1.8183     4.97819E-03
 STRESS PERIOD TIME 1.57100E+05  2618.3      43.639      1.8183     4.97819E-03
         TOTAL TIME 8.01950E+06 1.33658E+05  2227.6      92.818     0.25412    


end timestep


start timestep kper="5" kstp="2" mode="normal"

 UBDSV1 SAVING     FLOW-JA-FACE ON UNIT   1015 AT TIME STEP      2, STRESS PERIOD      5
 UBDSV06 SAVING              WEL IN MODEL MUMODEL          PACKAGE MUMODEL         CONNECTED TO MODEL MUMODEL          PACKAGE WEL-1            ON UNIT   1015 AT TIME STEP      2, STRESS PERIOD      5
 UBDSV06 SAVING             RCHA IN MODEL MUMODEL          PACKAGE MUMODEL         CONNECTED TO MODEL MUMODEL          PACKAGE RCH-1            ON UNIT   1015 AT TIME STEP      2, STRESS PERIOD      5

 WEL PACKAGE (WEL-1) FLOW RATES   PERIOD      5   STEP        2
 -----------------------------------------------
   NUMBER   CELLID                    RATE      
 -----------------------------------------------
     1      (1,5,5)               0.0000000     
     2      (1,11,5)              0.0000000     
     3      (1,5,5)               0.0000000     
 -----------------------------------------------




 CHD PACKAGE (CHD-FROM-IBOUND) FLOW RATES   PERIOD      5   STEP        2
 -----------------------------------------------
   NUMBER   CELLID                    RATE      
 -----------------------------------------------
     1      (1,1,1)              -5374.2053     
     2      (1,1,2)              -5374.1993     
     3      (1,1,3)              -5374.1997     
     4      (1,1,4)              -5374.2024     
     5      (1,1,5)              -5374.2049     
     6      (1,1,6)              -5374.2071     
     7      (1,1,7)              -5374.2098     
     8      (1,1,8)              -5374.2135     
     9      (1,1,9)              -5374.2175     
     10     (1,21,1)             -5374.2175     
     11     (1,21,2)             -5374.2111     
     12     (1,21,3)             -5374.2062     
     13     (1,21,4)             -5374.2033     
     14     (1,21,5)             -5374.2006     
     15     (1,21,6)             -5374.1972     
     16     (1,21,7)             -5374.1940     
     17     (1,21,8)             -5374.1957     
     18     (1,21,9)             -5374.2075     
 -----------------------------------------------




 HEAD WILL BE SAVED ON UNIT 1016 AT END OF TIME STEP    2, STRESS PERIOD    5


  VOLUME BUDGET FOR ENTIRE MODEL AT END OF TIME STEP    2, STRESS PERIOD   5
  ---------------------------------------------------------------------------------------------------

     CUMULATIVE VOLUME      L**3       RATES FOR THIS TIME STEP      L**3/T          PACKAGE NAME    
     ------------------                 ------------------------                     ----------------

           IN:                                      IN:
           ---                                      ---
              STO-SS =      266734.2548                STO-SS =           0.0000     STORAGE                          
              STO-SY =        7996.9318                STO-SY =           0.0000     STORAGE                          
                 WEL =           0.0000                   WEL =           0.0000     WEL-1                            
                RCHA =    21554948.9120                  RCHA =      256500.0000     RCH-1                            
                 CHD =           0.0000                   CHD =           0.0000     CHD-FROM-IBOUND                  

            TOTAL IN =    21829680.0986              TOTAL IN =      256500.0000

          OUT:                                     OUT:
          ----                                     ----
              STO-SS =    12419291.6609                STO-SS =      155142.6347     STORAGE                          
              STO-SY =      371565.4368                STO-SY =        4621.6729     STORAGE                          
                 WEL =           0.0000                   WEL =           0.0000     WEL-1                            
                RCHA =           0.0000                  RCHA =           0.0000     RCH-1                            
                 CHD =     9038824.2939                   CHD =       96735.6926     CHD-FROM-IBOUND                  

           TOTAL OUT =    21829681.3916             TOTAL OUT =      256500.0002

            IN - OUT =          -1.2930              IN - OUT =      -1.9071E-04

 PERCENT DISCREPANCY =          -0.00     PERCENT DISCREPANCY =          -0.00




         TIME SUMMARY AT END OF TIME STEP    2 IN STRESS PERIOD    5
                    SECONDS     MINUTES      HOURS       DAYS        YEARS
                    -----------------------------------------------------------
   TIME STEP LENGTH 1.88520E+05  3142.0      52.367      2.1819     5.97382E-03
 STRESS PERIOD TIME 3.45619E+05  5760.3      96.005      4.0002     1.09520E-02
         TOTAL TIME 8.20802E+06 1.36800E+05  2280.0      95.000     0.26010    


end timestep


start timestep kper="5" kstp="3" mode="normal"

 UBDSV1 SAVING     FLOW-JA-FACE ON UNIT   1015 AT TIME STEP      3, STRESS PERIOD      5
 UBDSV06 SAVING              WEL IN MODEL MUMODEL          PACKAGE MUMODEL         CONNECTED TO MODEL MUMODEL          PACKAGE WEL-1            ON UNIT   1015 AT TIME STEP      3, STRESS PERIOD      5
 UBDSV06 SAVING             RCHA IN MODEL MUMODEL          PACKAGE MUMODEL         CONNECTED TO MODEL MUMODEL          PACKAGE RCH-1            ON UNIT   1015 AT TIME STEP      3, STRESS PERIOD      5

 WEL PACKAGE (WEL-1) FLOW RATES   PERIOD      5   STEP        3
 -----------------------------------------------
   NUMBER   CELLID                    RATE      
 -----------------------------------------------
     1      (1,5,5)               0.0000000     
     2      (1,11,5)              0.0000000     
     3      (1,5,5)               0.0000000     
 -----------------------------------------------




 CHD PACKAGE (CHD-FROM-IBOUND) FLOW RATES   PERIOD      5   STEP        3
 -----------------------------------------------
   NUMBER   CELLID                    RATE      
 -----------------------------------------------
     1      (1,1,1)              -5378.2185     
     2      (1,1,2)              -5378.2125     
     3      (1,1,3)              -5378.2129     
     4      (1,1,4)              -5378.2155     
     5      (1,1,5)              -5378.2180     
     6      (1,1,6)              -5378.2202     
     7      (1,1,7)              -5378.2229     
     8      (1,1,8)              -5378.2266     
     9      (1,1,9)              -5378.2306     
     10     (1,21,1)             -5378.2306     
     11     (1,21,2)             -5378.2242     
     12     (1,21,3)             -5378.2193     
     13     (1,21,4)             -5378.2164     
     14     (1,21,5)             -5378.2137     
     15     (1,21,6)             -5378.2103     
     16     (1,21,7)             -5378.2073     
     17     (1,21,8)             -5378.2089     
     18     (1,21,9)             -5378.2206     
 -----------------------------------------------




 HEAD WILL BE SAVED ON UNIT 1016 AT END OF TIME STEP    3, STRESS PERIOD    5


  VOLUME BUDGET FOR ENTIRE MODEL AT END OF TIME STEP    3, STRESS PERIOD   5
  ---------------------------------------------------------------------------------------------------

     CUMULATIVE VOLUME      L**3       RATES FOR THIS TIME STEP      L**3/T          PACKAGE NAME    
     ------------------                 ------------------------                     ----------------

           IN:                                      IN:
           ---                                      ---
              STO-SS =      266734.2548                STO-SS =           0.0000     STORAGE                          
              STO-SY =        7996.9318                STO-SY =           0.0000     STORAGE                          
                 WEL =           0.0000                   WEL =           0.0000     WEL-1                            
                RCHA =    22226549.7998                  RCHA =      256500.0000     RCH-1                            
                 CHD =           0.0000                   CHD =           0.0000     CHD-FROM-IBOUND                  

            TOTAL IN =    22501280.9864              TOTAL IN =      256500.0000

          OUT:                                     OUT:
          ----                                     ----
              STO-SS =    12825324.8037                STO-SS =      155073.5013     STORAGE                          
              STO-SY =      383658.3635                STO-SY =        4618.5700     STORAGE                          
                 WEL =           0.0000                   WEL =           0.0000     WEL-1                            
                RCHA =           0.0000                  RCHA =           0.0000     RCH-1                            
                 CHD =     9292299.1131                   CHD =       96807.9291     CHD-FROM-IBOUND                  

           TOTAL OUT =    22501282.2803             TOTAL OUT =      256500.0003

            IN - OUT =          -1.2939              IN - OUT =      -3.2979E-04

 PERCENT DISCREPANCY =          -0.00     PERCENT DISCREPANCY =          -0.00




         TIME SUMMARY AT END OF TIME STEP    3 IN STRESS PERIOD    5
                    SECONDS     MINUTES      HOURS       DAYS        YEARS
                    -----------------------------------------------------------
   TIME STEP LENGTH 2.26223E+05  3770.4      62.840      2.6183     7.16859E-03
 STRESS PERIOD TIME 5.71843E+05  9530.7      158.85      6.6185     1.81206E-02
         TOTAL TIME 8.43424E+06 1.40571E+05  2342.8      97.619     0.26727    


end timestep


start timestep kper="5" kstp="4" mode="normal"

 UBDSV1 SAVING     FLOW-JA-FACE ON UNIT   1015 AT TIME STEP      4, STRESS PERIOD      5
 UBDSV06 SAVING              WEL IN MODEL MUMODEL          PACKAGE MUMODEL         CONNECTED TO MODEL MUMODEL          PACKAGE WEL-1            ON UNIT   1015 AT TIME STEP      4, STRESS PERIOD      5
 UBDSV06 SAVING             RCHA IN MODEL MUMODEL          PACKAGE MUMODEL         CONNECTED TO MODEL MUMODEL          PACKAGE RCH-1            ON UNIT   1015 AT TIME STEP      4, STRESS PERIOD      5

 WEL PACKAGE (WEL-1) FLOW RATES   PERIOD      5   STEP        4
 -----------------------------------------------
   NUMBER   CELLID                    RATE      
 -----------------------------------------------
     1      (1,5,5)               0.0000000     
     2      (1,11,5)              0.0000000     
     3      (1,5,5)               0.0000000     
 -----------------------------------------------




 CHD PACKAGE (CHD-FROM-IBOUND) FLOW RATES   PERIOD      5   STEP        4
 -----------------------------------------------
   NUMBER   CELLID                    RATE      
 -----------------------------------------------
     1      (1,1,1)              -5383.0105     
     2      (1,1,2)              -5383.0046     
     3      (1,1,3)              -5383.0049     
     4      (1,1,4)              -5383.0075     
     5      (1,1,5)              -5383.0100     
     6      (1,1,6)              -5383.0122     
     7      (1,1,7)              -5383.0148     
     8      (1,1,8)              -5383.0186     
     9      (1,1,9)              -5383.0226     
     10     (1,21,1)             -5383.0225     
     11     (1,21,2)             -5383.0161     
     12     (1,21,3)             -5383.0113     
     13     (1,21,4)             -5383.0084     
     14     (1,21,5)             -5383.0057     
     15     (1,21,6)             -5383.0024     
     16     (1,21,7)             -5382.9993     
     17     (1,21,8)             -5383.0011     
     18     (1,21,9)             -5383.0126     
 -----------------------------------------------




 HEAD WILL BE SAVED ON UNIT 1016 AT END OF TIME STEP    4, STRESS PERIOD    5


  VOLUME BUDGET FOR ENTIRE MODEL AT END OF TIME STEP    4, STRESS PERIOD   5
  ---------------------------------------------------------------------------------------------------

     CUMULATIVE VOLUME      L**3       RATES FOR THIS TIME STEP      L**3/T          PACKAGE NAME    
     ------------------                 ------------------------                     ----------------

           IN:                                      IN:
           ---                                      ---
              STO-SS =      266734.2548                STO-SS =           0.0000     STORAGE                          
              STO-SY =        7996.9318                STO-SY =           0.0000     STORAGE                          
                 WEL =           0.0000                   WEL =           0.0000     WEL-1                            
                RCHA =    23032470.8652                  RCHA =      256500.0000     RCH-1                            
                 CHD =           0.0000                   CHD =           0.0000     CHD-FROM-IBOUND                  

            TOTAL IN =    23307202.0518              TOTAL IN =      256500.0000

          OUT:                                     OUT:
          ----                                     ----
              STO-SS =    13312305.1969                STO-SS =      154990.9492     STORAGE                          
              STO-SY =      398158.2385                STO-SY =        4614.8663     STORAGE                          
                 WEL =           0.0000                   WEL =           0.0000     WEL-1                            
                RCHA =           0.0000                  RCHA =           0.0000     RCH-1                            
                 CHD =     9596739.9121                   CHD =       96894.1852     CHD-FROM-IBOUND                  

           TOTAL OUT =    23307203.3474             TOTAL OUT =      256500.0006

            IN - OUT =          -1.2956              IN - OUT =      -5.6472E-04

 PERCENT DISCREPANCY =          -0.00     PERCENT DISCREPANCY =          -0.00




         TIME SUMMARY AT END OF TIME STEP    4 IN STRESS PERIOD    5
                    SECONDS     MINUTES      HOURS       DAYS        YEARS
                    -----------------------------------------------------------
   TIME STEP LENGTH 2.71468E+05  4524.5      75.408      3.1420     8.60231E-03
 STRESS PERIOD TIME 8.43311E+05  14055.      234.25      9.7605     2.67229E-02
         TOTAL TIME 8.70571E+06 1.45095E+05  2418.3      100.76     0.27587    


end timestep


start timestep kper="5" kstp="5" mode="normal"

 UBDSV1 SAVING     FLOW-JA-FACE ON UNIT   1015 AT TIME STEP      5, STRESS PERIOD      5
 UBDSV06 SAVING              WEL IN MODEL MUMODEL          PACKAGE MUMODEL         CONNECTED TO MODEL MUMODEL          PACKAGE WEL-1            ON UNIT   1015 AT TIME STEP      5, STRESS PERIOD      5
 UBDSV06 SAVING             RCHA IN MODEL MUMODEL          PACKAGE MUMODEL         CONNECTED TO MODEL MUMODEL          PACKAGE RCH-1            ON UNIT   1015 AT TIME STEP      5, STRESS PERIOD      5

 WEL PACKAGE (WEL-1) FLOW RATES   PERIOD      5   STEP        5
 -----------------------------------------------
   NUMBER   CELLID                    RATE      
 -----------------------------------------------
     1      (1,5,5)               0.0000000     
     2      (1,11,5)              0.0000000     
     3      (1,5,5)               0.0000000     
 -----------------------------------------------




 CHD PACKAGE (CHD-FROM-IBOUND) FLOW RATES   PERIOD      5   STEP        5
 -----------------------------------------------
   NUMBER   CELLID                    RATE      
 -----------------------------------------------
     1      (1,1,1)              -5388.7271     
     2      (1,1,2)              -5388.7213     
     3      (1,1,3)              -5388.7216     
     4      (1,1,4)              -5388.7242     
     5      (1,1,5)              -5388.7266     
     6      (1,1,6)              -5388.7288     
     7      (1,1,7)              -5388.7314     
     8      (1,1,8)              -5388.7352     
     9      (1,1,9)              -5388.7391     
     10     (1,21,1)             -5388.7390     
     11     (1,21,2)             -5388.7327     
     12     (1,21,3)             -5388.7279     
     13     (1,21,4)             -5388.7250     
     14     (1,21,5)             -5388.7224     
     15     (1,21,6)             -5388.7190     
     16     (1,21,7)             -5388.7161     
     17     (1,21,8)             -5388.7178     
     18     (1,21,9)             -5388.7292     
 -----------------------------------------------




 HEAD WILL BE SAVED ON UNIT 1016 AT END OF TIME STEP    5, STRESS PERIOD    5


  VOLUME BUDGET FOR ENTIRE MODEL AT END OF TIME STEP    5, STRESS PERIOD   5
  ---------------------------------------------------------------------------------------------------

     CUMULATIVE VOLUME      L**3       RATES FOR THIS TIME STEP      L**3/T          PACKAGE NAME    
     ------------------                 ------------------------                     ----------------

           IN:                                      IN:
           ---                                      ---
              STO-SS =      266734.2548                STO-SS =           0.0000     STORAGE                          
              STO-SY =        7996.9318                STO-SY =           0.0000     STORAGE                          
                 WEL =           0.0000                   WEL =           0.0000     WEL-1                            
                RCHA =    23999576.1436                  RCHA =      256500.0000     RCH-1                            
                 CHD =           0.0000                   CHD =           0.0000     CHD-FROM-IBOUND                  

            TOTAL IN =    24274307.3303              TOTAL IN =      256500.0000

          OUT:                                     OUT:
          ----                                     ----
              STO-SS =    13896310.3511                STO-SS =      154892.4666     STORAGE                          
              STO-SY =      415541.4372                STO-SY =        4610.4499     STORAGE                          
                 WEL =           0.0000                   WEL =           0.0000     WEL-1                            
                RCHA =           0.0000                  RCHA =           0.0000     RCH-1                            
                 CHD =     9962456.8413                   CHD =       96997.0844     CHD-FROM-IBOUND                  

           TOTAL OUT =    24274308.6295             TOTAL OUT =      256500.0010

            IN - OUT =          -1.2993              IN - OUT =      -9.6133E-04

 PERCENT DISCREPANCY =          -0.00     PERCENT DISCREPANCY =          -0.00




         TIME SUMMARY AT END OF TIME STEP    5 IN STRESS PERIOD    5
                    SECONDS     MINUTES      HOURS       DAYS        YEARS
                    -----------------------------------------------------------
   TIME STEP LENGTH 3.25762E+05  5429.4      90.489      3.7704     1.03228E-02
 STRESS PERIOD TIME 1.16907E+06  19485.      324.74      13.531     3.70457E-02
         TOTAL TIME 9.03147E+06 1.50525E+05  2508.7      104.53     0.28619    


end timestep


start timestep kper="5" kstp="6" mode="normal"

 UBDSV1 SAVING     FLOW-JA-FACE ON UNIT   1015 AT TIME STEP      6, STRESS PERIOD      5
 UBDSV06 SAVING              WEL IN MODEL MUMODEL          PACKAGE MUMODEL         CONNECTED TO MODEL MUMODEL          PACKAGE WEL-1            ON UNIT   1015 AT TIME STEP      6, STRESS PERIOD      5
 UBDSV06 SAVING             RCHA IN MODEL MUMODEL          PACKAGE MUMODEL         CONNECTED TO MODEL MUMODEL          PACKAGE RCH-1            ON UNIT   1015 AT TIME STEP      6, STRESS PERIOD      5

 WEL PACKAGE (WEL-1) FLOW RATES   PERIOD      5   STEP        6
 -----------------------------------------------
   NUMBER   CELLID                    RATE      
 -----------------------------------------------
     1      (1,5,5)               0.0000000     
     2      (1,11,5)              0.0000000     
     3      (1,5,5)               0.0000000     
 -----------------------------------------------




 CHD PACKAGE (CHD-FROM-IBOUND) FLOW RATES   PERIOD      5   STEP        6
 -----------------------------------------------
   NUMBER   CELLID                    RATE      
 -----------------------------------------------
     1      (1,1,1)              -5395.5391     
     2      (1,1,2)              -5395.5334     
     3      (1,1,3)              -5395.5337     
     4      (1,1,4)              -5395.5362     
     5      (1,1,5)              -5395.5387     
     6      (1,1,6)              -5395.5408     
     7      (1,1,7)              -5395.5435     
     8      (1,1,8)              -5395.5472     
     9      (1,1,9)              -5395.5511     
     10     (1,21,1)             -5395.5509     
     11     (1,21,2)             -5395.5446     
     12     (1,21,3)             -5395.5399     
     13     (1,21,4)             -5395.5371     
     14     (1,21,5)             -5395.5344     
     15     (1,21,6)             -5395.5311     
     16     (1,21,7)             -5395.5282     
     17     (1,21,8)             -5395.5301     
     18     (1,21,9)             -5395.5413     
 -----------------------------------------------




 HEAD WILL BE SAVED ON UNIT 1016 AT END OF TIME STEP    6, STRESS PERIOD    5


  VOLUME BUDGET FOR ENTIRE MODEL AT END OF TIME STEP    6, STRESS PERIOD   5
  ---------------------------------------------------------------------------------------------------

     CUMULATIVE VOLUME      L**3       RATES FOR THIS TIME STEP      L**3/T          PACKAGE NAME    
     ------------------                 ------------------------                     ----------------

           IN:                                      IN:
           ---                                      ---
              STO-SS =      266734.2548                STO-SS =           0.0000     STORAGE                          
              STO-SY =        7996.9318                STO-SY =           0.0000     STORAGE                          
                 WEL =           0.0000                   WEL =           0.0000     WEL-1                            
                RCHA =    25160102.4778                  RCHA =      256500.0000     RCH-1                            
                 CHD =           0.0000                   CHD =           0.0000     CHD-FROM-IBOUND                  

            TOTAL IN =    25434833.6644              TOTAL IN =      256500.0000

          OUT:                                     OUT:
          ----                                     ----
              STO-SS =    14596585.5600                STO-SS =      154775.1101     STORAGE                          
              STO-SY =      436377.4785                STO-SY =        4605.1903     STORAGE                          
                 WEL =           0.0000                   WEL =           0.0000     WEL-1                            
                RCHA =           0.0000                  RCHA =           0.0000     RCH-1                            
                 CHD =    10401871.9326                   CHD =       97119.7013     CHD-FROM-IBOUND                  

           TOTAL OUT =    25434834.9711             TOTAL OUT =      256500.0016

            IN - OUT =          -1.3067              IN - OUT =      -1.6317E-03

 PERCENT DISCREPANCY =          -0.00     PERCENT DISCREPANCY =          -0.00




         TIME SUMMARY AT END OF TIME STEP    6 IN STRESS PERIOD    5
                    SECONDS     MINUTES      HOURS       DAYS        YEARS
                    -----------------------------------------------------------
   TIME STEP LENGTH 3.90914E+05  6515.2      108.59      4.5245     1.23873E-02
 STRESS PERIOD TIME 1.55999E+06  26000.      433.33      18.055     4.94330E-02
         TOTAL TIME 9.42239E+06 1.57040E+05  2617.3      109.06     0.29858    


end timestep


start timestep kper="5" kstp="7" mode="normal"

 UBDSV1 SAVING     FLOW-JA-FACE ON UNIT   1015 AT TIME STEP      7, STRESS PERIOD      5
 UBDSV06 SAVING              WEL IN MODEL MUMODEL          PACKAGE MUMODEL         CONNECTED TO MODEL MUMODEL          PACKAGE WEL-1            ON UNIT   1015 AT TIME STEP      7, STRESS PERIOD      5
 UBDSV06 SAVING             RCHA IN MODEL MUMODEL          PACKAGE MUMODEL         CONNECTED TO MODEL MUMODEL          PACKAGE RCH-1            ON UNIT   1015 AT TIME STEP      7, STRESS PERIOD      5

 WEL PACKAGE (WEL-1) FLOW RATES   PERIOD      5   STEP        7
 -----------------------------------------------
   NUMBER   CELLID                    RATE      
 -----------------------------------------------
     1      (1,5,5)               0.0000000     
     2      (1,11,5)              0.0000000     
     3      (1,5,5)               0.0000000     
 -----------------------------------------------




 CHD PACKAGE (CHD-FROM-IBOUND) FLOW RATES   PERIOD      5   STEP        7
 -----------------------------------------------
   NUMBER   CELLID                    RATE      
 -----------------------------------------------
     1      (1,1,1)              -5403.6459     
     2      (1,1,2)              -5403.6403     
     3      (1,1,3)              -5403.6405     
     4      (1,1,4)              -5403.6430     
     5      (1,1,5)              -5403.6454     
     6      (1,1,6)              -5403.6475     
     7      (1,1,7)              -5403.6501     
     8      (1,1,8)              -5403.6538     
     9      (1,1,9)              -5403.6577     
     10     (1,21,1)             -5403.6574     
     11     (1,21,2)             -5403.6513     
     12     (1,21,3)             -5403.6466     
     13     (1,21,4)             -5403.6438     
     14     (1,21,5)             -5403.6412     
     15     (1,21,6)             -5403.6379     
     16     (1,21,7)             -5403.6351     
     17     (1,21,8)             -5403.6370     
     18     (1,21,9)             -5403.6480     
 -----------------------------------------------




 HEAD WILL BE SAVED ON UNIT 1016 AT END OF TIME STEP    7, STRESS PERIOD    5


  VOLUME BUDGET FOR ENTIRE MODEL AT END OF TIME STEP    7, STRESS PERIOD   5
  ---------------------------------------------------------------------------------------------------

     CUMULATIVE VOLUME      L**3       RATES FOR THIS TIME STEP      L**3/T          PACKAGE NAME    
     ------------------                 ------------------------                     ----------------

           IN:                                      IN:
           ---                                      ---
              STO-SS =      266734.2548                STO-SS =           0.0000     STORAGE                          
              STO-SY =        7996.9318                STO-SY =           0.0000     STORAGE                          
                 WEL =           0.0000                   WEL =           0.0000     WEL-1                            
                RCHA =    26552734.0788                  RCHA =      256500.0000     RCH-1                            
                 CHD =           0.0000                   CHD =           0.0000     CHD-FROM-IBOUND                  

            TOTAL IN =    26827465.2654              TOTAL IN =      256500.0000

          OUT:                                     OUT:
          ----                                     ----
              STO-SS =    15436157.5197                STO-SS =      154635.4452     STORAGE                          
              STO-SY =      461346.7662                STO-SY =        4598.9351     STORAGE                          
                 WEL =           0.0000                   WEL =           0.0000     WEL-1                            
                RCHA =           0.0000                  RCHA =           0.0000     RCH-1                            
                 CHD =    10929962.3011                   CHD =       97265.6225     CHD-FROM-IBOUND                  

           TOTAL OUT =    26827466.5870             TOTAL OUT =      256500.0028

            IN - OUT =          -1.3216              IN - OUT =      -2.7521E-03

 PERCENT DISCREPANCY =          -0.00     PERCENT DISCREPANCY =          -0.00




         TIME SUMMARY AT END OF TIME STEP    7 IN STRESS PERIOD    5
                    SECONDS     MINUTES      HOURS       DAYS        YEARS
                    -----------------------------------------------------------
   TIME STEP LENGTH 4.69097E+05  7818.3      130.30      5.4294     1.48648E-02
 STRESS PERIOD TIME 2.02908E+06  33818.      563.63      23.485     6.42978E-02
         TOTAL TIME 9.89148E+06 1.64858E+05  2747.6      114.48     0.31344    


end timestep


start timestep kper="5" kstp="8" mode="normal"

 UBDSV1 SAVING     FLOW-JA-FACE ON UNIT   1015 AT TIME STEP      8, STRESS PERIOD      5
 UBDSV06 SAVING              WEL IN MODEL MUMODEL          PACKAGE MUMODEL         CONNECTED TO MODEL MUMODEL          PACKAGE WEL-1            ON UNIT   1015 AT TIME STEP      8, STRESS PERIOD      5
 UBDSV06 SAVING             RCHA IN MODEL MUMODEL          PACKAGE MUMODEL         CONNECTED TO MODEL MUMODEL          PACKAGE RCH-1            ON UNIT   1015 AT TIME STEP      8, STRESS PERIOD      5

 WEL PACKAGE (WEL-1) FLOW RATES   PERIOD      5   STEP        8
 -----------------------------------------------
   NUMBER   CELLID                    RATE      
 -----------------------------------------------
     1      (1,5,5)               0.0000000     
     2      (1,11,5)              0.0000000     
     3      (1,5,5)               0.0000000     
 -----------------------------------------------




 CHD PACKAGE (CHD-FROM-IBOUND) FLOW RATES   PERIOD      5   STEP        8
 -----------------------------------------------
   NUMBER   CELLID                    RATE      
 -----------------------------------------------
     1      (1,1,1)              -5413.2785     
     2      (1,1,2)              -5413.2731     
     3      (1,1,3)              -5413.2732     
     4      (1,1,4)              -5413.2756     
     5      (1,1,5)              -5413.2780     
     6      (1,1,6)              -5413.2802     
     7      (1,1,7)              -5413.2827     
     8      (1,1,8)              -5413.2864     
     9      (1,1,9)              -5413.2902     
     10     (1,21,1)             -5413.2898     
     11     (1,21,2)             -5413.2838     
     12     (1,21,3)             -5413.2792     
     13     (1,21,4)             -5413.2764     
     14     (1,21,5)             -5413.2738     
     15     (1,21,6)             -5413.2706     
     16     (1,21,7)             -5413.2679     
     17     (1,21,8)             -5413.2699     
     18     (1,21,9)             -5413.2806     
 -----------------------------------------------




 HEAD WILL BE SAVED ON UNIT 1016 AT END OF TIME STEP    8, STRESS PERIOD    5


  VOLUME BUDGET FOR ENTIRE MODEL AT END OF TIME STEP    8, STRESS PERIOD   5
  ---------------------------------------------------------------------------------------------------

     CUMULATIVE VOLUME      L**3       RATES FOR THIS TIME STEP      L**3/T          PACKAGE NAME    
     ------------------                 ------------------------                     ----------------

           IN:                                      IN:
           ---                                      ---
              STO-SS =      266734.2548                STO-SS =           0.0000     STORAGE                          
              STO-SY =        7996.9318                STO-SY =           0.0000     STORAGE                          
                 WEL =           0.0000                   WEL =           0.0000     WEL-1                            
                RCHA =    28223892.0000                  RCHA =      256500.0000     RCH-1                            
                 CHD =           0.0000                   CHD =           0.0000     CHD-FROM-IBOUND                  

            TOTAL IN =    28498623.1866              TOTAL IN =      256500.0000

          OUT:                                     OUT:
          ----                                     ----
              STO-SS =    16442562.6098                STO-SS =      154469.4863     STORAGE                          
              STO-SY =      491261.5239                STO-SY =        4591.5082     STORAGE                          
                 WEL =           0.0000                   WEL =           0.0000     WEL-1                            
                RCHA =           0.0000                  RCHA =           0.0000     RCH-1                            
                 CHD =    11564800.4047                   CHD =       97439.0101     CHD-FROM-IBOUND                  

           TOTAL OUT =    28498624.5384             TOTAL OUT =      256500.0046

            IN - OUT =          -1.3517              IN - OUT =      -4.6267E-03

 PERCENT DISCREPANCY =          -0.00     PERCENT DISCREPANCY =          -0.00




         TIME SUMMARY AT END OF TIME STEP    8 IN STRESS PERIOD    5
                    SECONDS     MINUTES      HOURS       DAYS        YEARS
                    -----------------------------------------------------------
   TIME STEP LENGTH 5.62916E+05  9381.9      156.37      6.5152     1.78377E-02
 STRESS PERIOD TIME 2.59200E+06  43200.      720.00      30.000     8.21355E-02
         TOTAL TIME 1.04544E+07 1.74240E+05  2904.0      121.00     0.33128    


end timestep


start timestep kper="6" kstp="1" mode="normal"


 OUTPUT CONTROL FOR STRESS PERIOD 6 IS REPEATED USING SETTINGS FROM A PREVIOUS STRESS PERIOD.


 STRESS PERIOD 6 IS TRANSIENT


 REUSING WELS FROM LAST STRESS PERIOD

 REUSING CHDS FROM LAST STRESS PERIOD
 UBDSV1 SAVING     FLOW-JA-FACE ON UNIT   1015 AT TIME STEP      1, STRESS PERIOD      6
 UBDSV06 SAVING              WEL IN MODEL MUMODEL          PACKAGE MUMODEL         CONNECTED TO MODEL MUMODEL          PACKAGE WEL-1            ON UNIT   1015 AT TIME STEP      1, STRESS PERIOD      6
 UBDSV06 SAVING             RCHA IN MODEL MUMODEL          PACKAGE MUMODEL         CONNECTED TO MODEL MUMODEL          PACKAGE RCH-1            ON UNIT   1015 AT TIME STEP      1, STRESS PERIOD      6

 WEL PACKAGE (WEL-1) FLOW RATES   PERIOD      6   STEP        1
 -----------------------------------------------
   NUMBER   CELLID                    RATE      
 -----------------------------------------------
     1      (1,5,5)               0.0000000     
     2      (1,11,5)              0.0000000     
     3      (1,5,5)               0.0000000     
 -----------------------------------------------




 CHD PACKAGE (CHD-FROM-IBOUND) FLOW RATES   PERIOD      6   STEP        1
 -----------------------------------------------
   NUMBER   CELLID                    RATE      
 -----------------------------------------------
     1      (1,1,1)              -5412.6178     
     2      (1,1,2)              -5412.6124     
     3      (1,1,3)              -5412.6126     
     4      (1,1,4)              -5412.6150     
     5      (1,1,5)              -5412.6174     
     6      (1,1,6)              -5412.6195     
     7      (1,1,7)              -5412.6221     
     8      (1,1,8)              -5412.6257     
     9      (1,1,9)              -5412.6296     
     10     (1,21,1)             -5412.6291     
     11     (1,21,2)             -5412.6231     
     12     (1,21,3)             -5412.6185     
     13     (1,21,4)             -5412.6157     
     14     (1,21,5)             -5412.6132     
     15     (1,21,6)             -5412.6100     
     16     (1,21,7)             -5412.6073     
     17     (1,21,8)             -5412.6094     
     18     (1,21,9)             -5412.6200     
 -----------------------------------------------




 HEAD WILL BE SAVED ON UNIT 1016 AT END OF TIME STEP    1, STRESS PERIOD    6


  VOLUME BUDGET FOR ENTIRE MODEL AT END OF TIME STEP    1, STRESS PERIOD   6
  ---------------------------------------------------------------------------------------------------

     CUMULATIVE VOLUME      L**3       RATES FOR THIS TIME STEP      L**3/T          PACKAGE NAME    
     ------------------                 ------------------------                     ----------------

           IN:                                      IN:
           ---                                      ---
              STO-SS =      288441.0557                STO-SS =       11552.9790     STORAGE                          
              STO-SY =        8699.7938                STO-SY =         374.0832     STORAGE                          
                 WEL =           0.0000                   WEL =           0.0000     WEL-1                            
                RCHA =    28384537.2741                  RCHA =       85500.0000     RCH-1                            
                 CHD =           0.0000                   CHD =           0.0000     CHD-FROM-IBOUND                  

            TOTAL IN =    28681678.1236              TOTAL IN =       97427.0622

          OUT:                                     OUT:
          ----                                     ----
              STO-SS =    16442562.6098                STO-SS =           0.0000     STORAGE                          
              STO-SY =      491261.5239                STO-SY =           0.0000     STORAGE                          
                 WEL =           0.0000                   WEL =           0.0000     WEL-1                            
                RCHA =           0.0000                  RCHA =           0.0000     RCH-1                            
                 CHD =    11747855.4472                   CHD =       97427.1184     CHD-FROM-IBOUND                  

           TOTAL OUT =    28681679.5809             TOTAL OUT =       97427.1184

            IN - OUT =          -1.4573              IN - OUT =      -5.6179E-02

 PERCENT DISCREPANCY =          -0.00     PERCENT DISCREPANCY =          -0.00




         TIME SUMMARY AT END OF TIME STEP    1 IN STRESS PERIOD    6
                    SECONDS     MINUTES      HOURS       DAYS        YEARS
                    -----------------------------------------------------------
   TIME STEP LENGTH 1.62336E+05  2705.6      45.093      1.8789     5.14413E-03
 STRESS PERIOD TIME 1.62336E+05  2705.6      45.093      1.8789     5.14413E-03
         TOTAL TIME 1.06167E+07 1.76946E+05  2949.1      122.88     0.33642    


end timestep


start timestep kper="6" kstp="2" mode="normal"

 UBDSV1 SAVING     FLOW-JA-FACE ON UNIT   1015 AT TIME STEP      2, STRESS PERIOD      6
 UBDSV06 SAVING              WEL IN MODEL MUMODEL          PACKAGE MUMODEL         CONNECTED TO MODEL MUMODEL          PACKAGE WEL-1            ON UNIT   1015 AT TIME STEP      2, STRESS PERIOD      6
 UBDSV06 SAVING             RCHA IN MODEL MUMODEL          PACKAGE MUMODEL         CONNECTED TO MODEL MUMODEL          PACKAGE RCH-1            ON UNIT   1015 AT TIME STEP      2, STRESS PERIOD      6

 WEL PACKAGE (WEL-1) FLOW RATES   PERIOD      6   STEP        2
 -----------------------------------------------
   NUMBER   CELLID                    RATE      
 -----------------------------------------------
     1      (1,5,5)               0.0000000     
     2      (1,11,5)              0.0000000     
     3      (1,5,5)               0.0000000     
 -----------------------------------------------




 CHD PACKAGE (CHD-FROM-IBOUND) FLOW RATES   PERIOD      6   STEP        2
 -----------------------------------------------
   NUMBER   CELLID                    RATE      
 -----------------------------------------------
     1      (1,1,1)              -5411.7722     
     2      (1,1,2)              -5411.7669     
     3      (1,1,3)              -5411.7670     
     4      (1,1,4)              -5411.7694     
     5      (1,1,5)              -5411.7717     
     6      (1,1,6)              -5411.7739     
     7      (1,1,7)              -5411.7764     
     8      (1,1,8)              -5411.7801     
     9      (1,1,9)              -5411.7839     
     10     (1,21,1)             -5411.7834     
     11     (1,21,2)             -5411.7775     
     12     (1,21,3)             -5411.7728     
     13     (1,21,4)             -5411.7701     
     14     (1,21,5)             -5411.7675     
     15     (1,21,6)             -5411.7644     
     16     (1,21,7)             -5411.7618     
     17     (1,21,8)             -5411.7638     
     18     (1,21,9)             -5411.7743     
 -----------------------------------------------




 HEAD WILL BE SAVED ON UNIT 1016 AT END OF TIME STEP    2, STRESS PERIOD    6


  VOLUME BUDGET FOR ENTIRE MODEL AT END OF TIME STEP    2, STRESS PERIOD   6
  ---------------------------------------------------------------------------------------------------

     CUMULATIVE VOLUME      L**3       RATES FOR THIS TIME STEP      L**3/T          PACKAGE NAME    
     ------------------                 ------------------------                     ----------------

           IN:                                      IN:
           ---                                      ---
              STO-SS =      314456.3119                STO-SS =       11538.3849     STORAGE                          
              STO-SY =        9541.7900                STO-SY =         373.4453     STORAGE                          
                 WEL =           0.0000                   WEL =           0.0000     WEL-1                            
                RCHA =    28577311.6030                  RCHA =       85500.0000     RCH-1                            
                 CHD =           0.0000                   CHD =           0.0000     CHD-FROM-IBOUND                  

            TOTAL IN =    28901309.7049              TOTAL IN =       97411.8303

          OUT:                                     OUT:
          ----                                     ----
              STO-SS =    16442562.6098                STO-SS =           0.0000     STORAGE                          
              STO-SY =      491261.5239                STO-SY =           0.0000     STORAGE                          
                 WEL =           0.0000                   WEL =           0.0000     WEL-1                            
                RCHA =           0.0000                  RCHA =           0.0000     RCH-1                            
                 CHD =    11967487.1791                   CHD =       97411.8970     CHD-FROM-IBOUND                  

           TOTAL OUT =    28901311.3128             TOTAL OUT =       97411.8970

            IN - OUT =          -1.6079              IN - OUT =      -6.6778E-02

 PERCENT DISCREPANCY =          -0.00     PERCENT DISCREPANCY =          -0.00




         TIME SUMMARY AT END OF TIME STEP    2 IN STRESS PERIOD    6
                    SECONDS     MINUTES      HOURS       DAYS        YEARS
                    -----------------------------------------------------------
   TIME STEP LENGTH 1.94804E+05  3246.7      54.112      2.2547     6.17295E-03
 STRESS PERIOD TIME 3.57140E+05  5952.3      99.206      4.1336     1.13171E-02
         TOTAL TIME 1.08115E+07 1.80192E+05  3003.2      125.13     0.34260    


end timestep


start timestep kper="6" kstp="3" mode="normal"

 UBDSV1 SAVING     FLOW-JA-FACE ON UNIT   1015 AT TIME STEP      3, STRESS PERIOD      6
 UBDSV06 SAVING              WEL IN MODEL MUMODEL          PACKAGE MUMODEL         CONNECTED TO MODEL MUMODEL          PACKAGE WEL-1            ON UNIT   1015 AT TIME STEP      3, STRESS PERIOD      6
 UBDSV06 SAVING             RCHA IN MODEL MUMODEL          PACKAGE MUMODEL         CONNECTED TO MODEL MUMODEL          PACKAGE RCH-1            ON UNIT   1015 AT TIME STEP      3, STRESS PERIOD      6

 WEL PACKAGE (WEL-1) FLOW RATES   PERIOD      6   STEP        3
 -----------------------------------------------
   NUMBER   CELLID                    RATE      
 -----------------------------------------------
     1      (1,5,5)               0.0000000     
     2      (1,11,5)              0.0000000     
     3      (1,5,5)               0.0000000     
 -----------------------------------------------




 CHD PACKAGE (CHD-FROM-IBOUND) FLOW RATES   PERIOD      6   STEP        3
 -----------------------------------------------
   NUMBER   CELLID                    RATE      
 -----------------------------------------------
     1      (1,1,1)              -5410.7659     
     2      (1,1,2)              -5410.7606     
     3      (1,1,3)              -5410.7607     
     4      (1,1,4)              -5410.7630     
     5      (1,1,5)              -5410.7654     
     6      (1,1,6)              -5410.7675     
     7      (1,1,7)              -5410.7701     
     8      (1,1,8)              -5410.7737     
     9      (1,1,9)              -5410.7775     
     10     (1,21,1)             -5410.7770     
     11     (1,21,2)             -5410.7711     
     12     (1,21,3)             -5410.7665     
     13     (1,21,4)             -5410.7638     
     14     (1,21,5)             -5410.7612     
     15     (1,21,6)             -5410.7581     
     16     (1,21,7)             -5410.7555     
     17     (1,21,8)             -5410.7576     
     18     (1,21,9)             -5410.7680     
 -----------------------------------------------




 HEAD WILL BE SAVED ON UNIT 1016 AT END OF TIME STEP    3, STRESS PERIOD    6


  VOLUME BUDGET FOR ENTIRE MODEL AT END OF TIME STEP    3, STRESS PERIOD   6
  ---------------------------------------------------------------------------------------------------

     CUMULATIVE VOLUME      L**3       RATES FOR THIS TIME STEP      L**3/T          PACKAGE NAME    
     ------------------                 ------------------------                     ----------------

           IN:                                      IN:
           ---                                      ---
              STO-SS =      345627.6298                STO-SS =       11521.0174     STORAGE                          
              STO-SY =       10550.1324                STO-SY =         372.6865     STORAGE                          
                 WEL =           0.0000                   WEL =           0.0000     WEL-1                            
                RCHA =    28808640.7977                  RCHA =       85500.0000     RCH-1                            
                 CHD =           0.0000                   CHD =           0.0000     CHD-FROM-IBOUND                  

            TOTAL IN =    29164818.5599              TOTAL IN =       97393.7039

          OUT:                                     OUT:
          ----                                     ----
              STO-SS =    16442562.6098                STO-SS =           0.0000     STORAGE                          
              STO-SY =      491261.5239                STO-SY =           0.0000     STORAGE                          
                 WEL =           0.0000                   WEL =           0.0000     WEL-1                            
                RCHA =           0.0000                  RCHA =           0.0000     RCH-1                            
                 CHD =    12230996.2485                   CHD =       97393.7832     CHD-FROM-IBOUND                  

           TOTAL OUT =    29164820.3821             TOTAL OUT =       97393.7832

            IN - OUT =          -1.8222              IN - OUT =      -7.9225E-02

 PERCENT DISCREPANCY =          -0.00     PERCENT DISCREPANCY =          -0.00




         TIME SUMMARY AT END OF TIME STEP    3 IN STRESS PERIOD    6
                    SECONDS     MINUTES      HOURS       DAYS        YEARS
                    -----------------------------------------------------------
   TIME STEP LENGTH 2.33764E+05  3896.1      64.935      2.7056     7.40754E-03
 STRESS PERIOD TIME 5.90904E+05  9848.4      164.14      6.8392     1.87246E-02
         TOTAL TIME 1.10453E+07 1.84088E+05  3068.1      127.84     0.35000    


end timestep


start timestep kper="6" kstp="4" mode="normal"

 UBDSV1 SAVING     FLOW-JA-FACE ON UNIT   1015 AT TIME STEP      4, STRESS PERIOD      6
 UBDSV06 SAVING              WEL IN MODEL MUMODEL          PACKAGE MUMODEL         CONNECTED TO MODEL MUMODEL          PACKAGE WEL-1            ON UNIT   1015 AT TIME STEP      4, STRESS PERIOD      6
 UBDSV06 SAVING             RCHA IN MODEL MUMODEL          PACKAGE MUMODEL         CONNECTED TO MODEL MUMODEL          PACKAGE RCH-1            ON UNIT   1015 AT TIME STEP      4, STRESS PERIOD      6

 WEL PACKAGE (WEL-1) FLOW RATES   PERIOD      6   STEP        4
 -----------------------------------------------
   NUMBER   CELLID                    RATE      
 -----------------------------------------------
     1      (1,5,5)               0.0000000     
     2      (1,11,5)              0.0000000     
     3      (1,5,5)               0.0000000     
 -----------------------------------------------




 CHD PACKAGE (CHD-FROM-IBOUND) FLOW RATES   PERIOD      6   STEP        4
 -----------------------------------------------
   NUMBER   CELLID                    RATE      
 -----------------------------------------------
     1      (1,1,1)              -5409.4728     
     2      (1,1,2)              -5409.4675     
     3      (1,1,3)              -5409.4676     
     4      (1,1,4)              -5409.4699     
     5      (1,1,5)              -5409.4723     
     6      (1,1,6)              -5409.4744     
     7      (1,1,7)              -5409.4769     
     8      (1,1,8)              -5409.4806     
     9      (1,1,9)              -5409.4843     
     10     (1,21,1)             -5409.4838     
     11     (1,21,2)             -5409.4779     
     12     (1,21,3)             -5409.4734     
     13     (1,21,4)             -5409.4706     
     14     (1,21,5)             -5409.4681     
     15     (1,21,6)             -5409.4650     
     16     (1,21,7)             -5409.4625     
     17     (1,21,8)             -5409.4646     
     18     (1,21,9)             -5409.4749     
 -----------------------------------------------




 HEAD WILL BE SAVED ON UNIT 1016 AT END OF TIME STEP    4, STRESS PERIOD    6


  VOLUME BUDGET FOR ENTIRE MODEL AT END OF TIME STEP    4, STRESS PERIOD   6
  ---------------------------------------------------------------------------------------------------

     CUMULATIVE VOLUME      L**3       RATES FOR THIS TIME STEP      L**3/T          PACKAGE NAME    
     ------------------                 ------------------------                     ----------------

           IN:                                      IN:
           ---                                      ---
              STO-SS =      382960.9871                STO-SS =       11498.7722     STORAGE                          
              STO-SY =       11757.0540                STO-SY =         371.7350     STORAGE                          
                 WEL =           0.0000                   WEL =           0.0000     WEL-1                            
                RCHA =    29086235.8313                  RCHA =       85500.0000     RCH-1                            
                 CHD =           0.0000                   CHD =           0.0000     CHD-FROM-IBOUND                  

            TOTAL IN =    29480953.8724              TOTAL IN =       97370.5072

          OUT:                                     OUT:
          ----                                     ----
              STO-SS =    16442562.6098                STO-SS =           0.0000     STORAGE                          
              STO-SY =      491261.5239                STO-SY =           0.0000     STORAGE                          
                 WEL =           0.0000                   WEL =           0.0000     WEL-1                            
                RCHA =           0.0000                  RCHA =           0.0000     RCH-1                            
                 CHD =    12547131.5606                   CHD =       97370.5071     CHD-FROM-IBOUND                  

           TOTAL OUT =    29480955.6942             TOTAL OUT =       97370.5071

            IN - OUT =          -1.8218              IN - OUT =       1.2398E-04

 PERCENT DISCREPANCY =          -0.00     PERCENT DISCREPANCY =           0.00




         TIME SUMMARY AT END OF TIME STEP    4 IN STRESS PERIOD    6
                    SECONDS     MINUTES      HOURS       DAYS        YEARS
                    -----------------------------------------------------------
   TIME STEP LENGTH 2.80517E+05  4675.3      77.921      3.2467     8.88905E-03
 STRESS PERIOD TIME 8.71421E+05  14524.      242.06      10.086     2.76137E-02
         TOTAL TIME 1.13258E+07 1.88764E+05  3146.1      131.09     0.35889    


end timestep


start timestep kper="6" kstp="5" mode="normal"

 UBDSV1 SAVING     FLOW-JA-FACE ON UNIT   1015 AT TIME STEP      5, STRESS PERIOD      6
 UBDSV06 SAVING              WEL IN MODEL MUMODEL          PACKAGE MUMODEL         CONNECTED TO MODEL MUMODEL          PACKAGE WEL-1            ON UNIT   1015 AT TIME STEP      5, STRESS PERIOD      6
 UBDSV06 SAVING             RCHA IN MODEL MUMODEL          PACKAGE MUMODEL         CONNECTED TO MODEL MUMODEL          PACKAGE RCH-1            ON UNIT   1015 AT TIME STEP      5, STRESS PERIOD      6

 WEL PACKAGE (WEL-1) FLOW RATES   PERIOD      6   STEP        5
 -----------------------------------------------
   NUMBER   CELLID                    RATE      
 -----------------------------------------------
     1      (1,5,5)               0.0000000     
     2      (1,11,5)              0.0000000     
     3      (1,5,5)               0.0000000     
 -----------------------------------------------




 CHD PACKAGE (CHD-FROM-IBOUND) FLOW RATES   PERIOD      6   STEP        5
 -----------------------------------------------
   NUMBER   CELLID                    RATE      
 -----------------------------------------------
     1      (1,1,1)              -5408.0367     
     2      (1,1,2)              -5408.0315     
     3      (1,1,3)              -5408.0315     
     4      (1,1,4)              -5408.0338     
     5      (1,1,5)              -5408.0362     
     6      (1,1,6)              -5408.0383     
     7      (1,1,7)              -5408.0408     
     8      (1,1,8)              -5408.0444     
     9      (1,1,9)              -5408.0482     
     10     (1,21,1)             -5408.0475     
     11     (1,21,2)             -5408.0418     
     12     (1,21,3)             -5408.0372     
     13     (1,21,4)             -5408.0345     
     14     (1,21,5)             -5408.0320     
     15     (1,21,6)             -5408.0289     
     16     (1,21,7)             -5408.0265     
     17     (1,21,8)             -5408.0286     
     18     (1,21,9)             -5408.0388     
 -----------------------------------------------




 HEAD WILL BE SAVED ON UNIT 1016 AT END OF TIME STEP    5, STRESS PERIOD    6


  VOLUME BUDGET FOR ENTIRE MODEL AT END OF TIME STEP    5, STRESS PERIOD   6
  ---------------------------------------------------------------------------------------------------

     CUMULATIVE VOLUME      L**3       RATES FOR THIS TIME STEP      L**3/T          PACKAGE NAME    
     ------------------                 ------------------------                     ----------------

           IN:                                      IN:
           ---                                      ---
              STO-SS =      427664.5012                STO-SS =       11473.9999     STORAGE                          
              STO-SY =       13201.1621                STO-SY =         370.6576     STORAGE                          
                 WEL =           0.0000                   WEL =           0.0000     WEL-1                            
                RCHA =    29419349.8717                  RCHA =       85500.0000     RCH-1                            
                 CHD =           0.0000                   CHD =           0.0000     CHD-FROM-IBOUND                  

            TOTAL IN =    29860215.5350              TOTAL IN =       97344.6574

          OUT:                                     OUT:
          ----                                     ----
              STO-SS =    16442562.6098                STO-SS =           0.0000     STORAGE                          
              STO-SY =      491261.5239                STO-SY =           0.0000     STORAGE                          
                 WEL =           0.0000                   WEL =           0.0000     WEL-1                            
                RCHA =           0.0000                  RCHA =           0.0000     RCH-1                            
                 CHD =    12926393.2223                   CHD =       97344.6572     CHD-FROM-IBOUND                  

           TOTAL OUT =    29860217.3560             TOTAL OUT =       97344.6572

            IN - OUT =          -1.8210              IN - OUT =       2.0972E-04

 PERCENT DISCREPANCY =          -0.00     PERCENT DISCREPANCY =           0.00




         TIME SUMMARY AT END OF TIME STEP    5 IN STRESS PERIOD    6
                    SECONDS     MINUTES      HOURS       DAYS        YEARS
                    -----------------------------------------------------------
   TIME STEP LENGTH 3.36621E+05  5610.3      93.506      3.8961     1.06669E-02
 STRESS PERIOD TIME 1.20804E+06  20134.      335.57      13.982     3.82805E-02
         TOTAL TIME 1.16624E+07 1.94374E+05  3239.6      134.98     0.36956    


end timestep


start timestep kper="6" kstp="6" mode="normal"

 UBDSV1 SAVING     FLOW-JA-FACE ON UNIT   1015 AT TIME STEP      6, STRESS PERIOD      6
 UBDSV06 SAVING              WEL IN MODEL MUMODEL          PACKAGE MUMODEL         CONNECTED TO MODEL MUMODEL          PACKAGE WEL-1            ON UNIT   1015 AT TIME STEP      6, STRESS PERIOD      6
 UBDSV06 SAVING             RCHA IN MODEL MUMODEL          PACKAGE MUMODEL         CONNECTED TO MODEL MUMODEL          PACKAGE RCH-1            ON UNIT   1015 AT TIME STEP      6, STRESS PERIOD      6

 WEL PACKAGE (WEL-1) FLOW RATES   PERIOD      6   STEP        6
 -----------------------------------------------
   NUMBER   CELLID                    RATE      
 -----------------------------------------------
     1      (1,5,5)               0.0000000     
     2      (1,11,5)              0.0000000     
     3      (1,5,5)               0.0000000     
 -----------------------------------------------




 CHD PACKAGE (CHD-FROM-IBOUND) FLOW RATES   PERIOD      6   STEP        6
 -----------------------------------------------
   NUMBER   CELLID                    RATE      
 -----------------------------------------------
     1      (1,1,1)              -5406.3378     
     2      (1,1,2)              -5406.3327     
     3      (1,1,3)              -5406.3327     
     4      (1,1,4)              -5406.3350     
     5      (1,1,5)              -5406.3373     
     6      (1,1,6)              -5406.3394     
     7      (1,1,7)              -5406.3419     
     8      (1,1,8)              -5406.3455     
     9      (1,1,9)              -5406.3492     
     10     (1,21,1)             -5406.3485     
     11     (1,21,2)             -5406.3428     
     12     (1,21,3)             -5406.3383     
     13     (1,21,4)             -5406.3356     
     14     (1,21,5)             -5406.3331     
     15     (1,21,6)             -5406.3301     
     16     (1,21,7)             -5406.3277     
     17     (1,21,8)             -5406.3299     
     18     (1,21,9)             -5406.3399     
 -----------------------------------------------




 HEAD WILL BE SAVED ON UNIT 1016 AT END OF TIME STEP    6, STRESS PERIOD    6


  VOLUME BUDGET FOR ENTIRE MODEL AT END OF TIME STEP    6, STRESS PERIOD   6
  ---------------------------------------------------------------------------------------------------

     CUMULATIVE VOLUME      L**3       RATES FOR THIS TIME STEP      L**3/T          PACKAGE NAME    
     ------------------                 ------------------------                     ----------------

           IN:                                      IN:
           ---                                      ---
              STO-SS =      481171.7046                STO-SS =       11444.6940     STORAGE                          
              STO-SY =       14928.1365                STO-SY =         369.3838     STORAGE                          
                 WEL =           0.0000                   WEL =           0.0000     WEL-1                            
                RCHA =    29819086.7201                  RCHA =       85500.0000     RCH-1                            
                 CHD =           0.0000                   CHD =           0.0000     CHD-FROM-IBOUND                  

            TOTAL IN =    30315186.5612              TOTAL IN =       97314.0777

          OUT:                                     OUT:
          ----                                     ----
              STO-SS =    16442562.6098                STO-SS =           0.0000     STORAGE                          
              STO-SY =      491261.5239                STO-SY =           0.0000     STORAGE                          
                 WEL =           0.0000                   WEL =           0.0000     WEL-1                            
                RCHA =           0.0000                  RCHA =           0.0000     RCH-1                            
                 CHD =    13381364.2469                   CHD =       97314.0774     CHD-FROM-IBOUND                  

           TOTAL OUT =    30315188.3806             TOTAL OUT =       97314.0774

            IN - OUT =          -1.8193              IN - OUT =       3.5137E-04

 PERCENT DISCREPANCY =          -0.00     PERCENT DISCREPANCY =           0.00




         TIME SUMMARY AT END OF TIME STEP    6 IN STRESS PERIOD    6
                    SECONDS     MINUTES      HOURS       DAYS        YEARS
                    -----------------------------------------------------------
   TIME STEP LENGTH 4.03945E+05  6732.4      112.21      4.6753     1.28002E-02
 STRESS PERIOD TIME 1.61199E+06  26866.      447.77      18.657     5.10808E-02
         TOTAL TIME 1.20664E+07 2.01106E+05  3351.8      139.66     0.38236    


end timestep


start timestep kper="6" kstp="7" mode="normal"

 UBDSV1 SAVING     FLOW-JA-FACE ON UNIT   1015 AT TIME STEP      7, STRESS PERIOD      6
 UBDSV06 SAVING              WEL IN MODEL MUMODEL          PACKAGE MUMODEL         CONNECTED TO MODEL MUMODEL          PACKAGE WEL-1            ON UNIT   1015 AT TIME STEP      7, STRESS PERIOD      6
 UBDSV06 SAVING             RCHA IN MODEL MUMODEL          PACKAGE MUMODEL         CONNECTED TO MODEL MUMODEL          PACKAGE RCH-1            ON UNIT   1015 AT TIME STEP      7, STRESS PERIOD      6

 WEL PACKAGE (WEL-1) FLOW RATES   PERIOD      6   STEP        7
 -----------------------------------------------
   NUMBER   CELLID                    RATE      
 -----------------------------------------------
     1      (1,5,5)               0.0000000     
     2      (1,11,5)              0.0000000     
     3      (1,5,5)               0.0000000     
 -----------------------------------------------




 CHD PACKAGE (CHD-FROM-IBOUND) FLOW RATES   PERIOD      6   STEP        7
 -----------------------------------------------
   NUMBER   CELLID                    RATE      
 -----------------------------------------------
     1      (1,1,1)              -5404.3335     
     2      (1,1,2)              -5404.3285     
     3      (1,1,3)              -5404.3285     
     4      (1,1,4)              -5404.3307     
     5      (1,1,5)              -5404.3330     
     6      (1,1,6)              -5404.3350     
     7      (1,1,7)              -5404.3376     
     8      (1,1,8)              -5404.3411     
     9      (1,1,9)              -5404.3448     
     10     (1,21,1)             -5404.3440     
     11     (1,21,2)             -5404.3384     
     12     (1,21,3)             -5404.3340     
     13     (1,21,4)             -5404.3313     
     14     (1,21,5)             -5404.3288     
     15     (1,21,6)             -5404.3258     
     16     (1,21,7)             -5404.3235     
     17     (1,21,8)             -5404.3258     
     18     (1,21,9)             -5404.3356     
 -----------------------------------------------




 HEAD WILL BE SAVED ON UNIT 1016 AT END OF TIME STEP    7, STRESS PERIOD    6


  VOLUME BUDGET FOR ENTIRE MODEL AT END OF TIME STEP    7, STRESS PERIOD   6
  ---------------------------------------------------------------------------------------------------

     CUMULATIVE VOLUME      L**3       RATES FOR THIS TIME STEP      L**3/T          PACKAGE NAME    
     ------------------                 ------------------------                     ----------------

           IN:                                      IN:
           ---                                      ---
              STO-SS =      545186.3677                STO-SS =       11410.1183     STORAGE                          
              STO-SY =       16992.0808                STO-SY =         367.8821     STORAGE                          
                 WEL =           0.0000                   WEL =           0.0000     WEL-1                            
                RCHA =    30298770.9383                  RCHA =       85500.0000     RCH-1                            
                 CHD =           0.0000                   CHD =           0.0000     CHD-FROM-IBOUND                  

            TOTAL IN =    30860949.3867              TOTAL IN =       97278.0004

          OUT:                                     OUT:
          ----                                     ----
              STO-SS =    16442562.6098                STO-SS =           0.0000     STORAGE                          
              STO-SY =      491261.5239                STO-SY =           0.0000     STORAGE                          
                 WEL =           0.0000                   WEL =           0.0000     WEL-1                            
                RCHA =           0.0000                  RCHA =           0.0000     RCH-1                            
                 CHD =    13927127.0691                   CHD =       97277.9999     CHD-FROM-IBOUND                  

           TOTAL OUT =    30860951.2028             TOTAL OUT =       97277.9999

            IN - OUT =          -1.8161              IN - OUT =       5.8673E-04

 PERCENT DISCREPANCY =          -0.00     PERCENT DISCREPANCY =           0.00




         TIME SUMMARY AT END OF TIME STEP    7 IN STRESS PERIOD    6
                    SECONDS     MINUTES      HOURS       DAYS        YEARS
                    -----------------------------------------------------------
   TIME STEP LENGTH 4.84734E+05  8078.9      134.65      5.6103     1.53603E-02
 STRESS PERIOD TIME 2.09672E+06  34945.      582.42      24.268     6.64410E-02
         TOTAL TIME 1.25511E+07 2.09185E+05  3486.4      145.27     0.39772    


end timestep


start timestep kper="6" kstp="8" mode="normal"

 UBDSV1 SAVING     FLOW-JA-FACE ON UNIT   1015 AT TIME STEP      8, STRESS PERIOD      6
 UBDSV06 SAVING              WEL IN MODEL MUMODEL          PACKAGE MUMODEL         CONNECTED TO MODEL MUMODEL          PACKAGE WEL-1            ON UNIT   1015 AT TIME STEP      8, STRESS PERIOD      6
 UBDSV06 SAVING             RCHA IN MODEL MUMODEL          PACKAGE MUMODEL         CONNECTED TO MODEL MUMODEL          PACKAGE RCH-1            ON UNIT   1015 AT TIME STEP      8, STRESS PERIOD      6

 WEL PACKAGE (WEL-1) FLOW RATES   PERIOD      6   STEP        8
 -----------------------------------------------
   NUMBER   CELLID                    RATE      
 -----------------------------------------------
     1      (1,5,5)               0.0000000     
     2      (1,11,5)              0.0000000     
     3      (1,5,5)               0.0000000     
 -----------------------------------------------




 CHD PACKAGE (CHD-FROM-IBOUND) FLOW RATES   PERIOD      6   STEP        8
 -----------------------------------------------
   NUMBER   CELLID                    RATE      
 -----------------------------------------------
     1      (1,1,1)              -5401.9763     
     2      (1,1,2)              -5401.9715     
     3      (1,1,3)              -5401.9714     
     4      (1,1,4)              -5401.9736     
     5      (1,1,5)              -5401.9758     
     6      (1,1,6)              -5401.9779     
     7      (1,1,7)              -5401.9804     
     8      (1,1,8)              -5401.9839     
     9      (1,1,9)              -5401.9876     
     10     (1,21,1)             -5401.9867     
     11     (1,21,2)             -5401.9812     
     12     (1,21,3)             -5401.9768     
     13     (1,21,4)             -5401.9741     
     14     (1,21,5)             -5401.9717     
     15     (1,21,6)             -5401.9688     
     16     (1,21,7)             -5401.9666     
     17     (1,21,8)             -5401.9689     
     18     (1,21,9)             -5401.9784     
 -----------------------------------------------




 HEAD WILL BE SAVED ON UNIT 1016 AT END OF TIME STEP    8, STRESS PERIOD    6


  VOLUME BUDGET FOR ENTIRE MODEL AT END OF TIME STEP    8, STRESS PERIOD   6
  ---------------------------------------------------------------------------------------------------

     CUMULATIVE VOLUME      L**3       RATES FOR THIS TIME STEP      L**3/T          PACKAGE NAME    
     ------------------                 ------------------------                     ----------------

           IN:                                      IN:
           ---                                      ---
              STO-SS =      621730.2010                STO-SS =       11369.4550     STORAGE                          
              STO-SY =       19456.9351                STO-SY =         366.1177     STORAGE                          
                 WEL =           0.0000                   WEL =           0.0000     WEL-1                            
                RCHA =    30874392.0000                  RCHA =       85500.0000     RCH-1                            
                 CHD =           0.0000                   CHD =           0.0000     CHD-FROM-IBOUND                  

            TOTAL IN =    31515579.1361              TOTAL IN =       97235.5727

          OUT:                                     OUT:
          ----                                     ----
              STO-SS =    16442562.6098                STO-SS =           0.0000     STORAGE                          
              STO-SY =      491261.5239                STO-SY =           0.0000     STORAGE                          
                 WEL =           0.0000                   WEL =           0.0000     WEL-1                            
                RCHA =           0.0000                  RCHA =           0.0000     RCH-1                            
                 CHD =    14581756.8119                   CHD =       97235.5717     CHD-FROM-IBOUND                  

           TOTAL OUT =    31515580.9456             TOTAL OUT =       97235.5717

            IN - OUT =          -1.8095              IN - OUT =       9.7894E-04

 PERCENT DISCREPANCY =          -0.00     PERCENT DISCREPANCY =           0.00




         TIME SUMMARY AT END OF TIME STEP    8 IN STRESS PERIOD    6
                    SECONDS     MINUTES      HOURS       DAYS        YEARS
                    -----------------------------------------------------------
   TIME STEP LENGTH 5.81680E+05  9694.7      161.58      6.7324     1.84323E-02
 STRESS PERIOD TIME 2.67840E+06  44640.      744.00      31.000     8.48734E-02
         TOTAL TIME 1.31328E+07 2.18880E+05  3648.0      152.00     0.41615    


end timestep


start timestep kper="7" kstp="1" mode="normal"


 OUTPUT CONTROL FOR STRESS PERIOD 7 IS REPEATED USING SETTINGS FROM A PREVIOUS STRESS PERIOD.


 STRESS PERIOD 7 IS TRANSIENT


 REUSING WELS FROM LAST STRESS PERIOD

 REUSING CHDS FROM LAST STRESS PERIOD
 UBDSV1 SAVING     FLOW-JA-FACE ON UNIT   1015 AT TIME STEP      1, STRESS PERIOD      7
 UBDSV06 SAVING              WEL IN MODEL MUMODEL          PACKAGE MUMODEL         CONNECTED TO MODEL MUMODEL          PACKAGE WEL-1            ON UNIT   1015 AT TIME STEP      1, STRESS PERIOD      7
 UBDSV06 SAVING             RCHA IN MODEL MUMODEL          PACKAGE MUMODEL         CONNECTED TO MODEL MUMODEL          PACKAGE RCH-1            ON UNIT   1015 AT TIME STEP      1, STRESS PERIOD      7

 WEL PACKAGE (WEL-1) FLOW RATES   PERIOD      7   STEP        1
 -----------------------------------------------
   NUMBER   CELLID                    RATE      
 -----------------------------------------------
     1      (1,5,5)               0.0000000     
     2      (1,11,5)              0.0000000     
     3      (1,5,5)               0.0000000     
 -----------------------------------------------




 CHD PACKAGE (CHD-FROM-IBOUND) FLOW RATES   PERIOD      7   STEP        1
 -----------------------------------------------
   NUMBER   CELLID                    RATE      
 -----------------------------------------------
     1      (1,1,1)              -5400.4989     
     2      (1,1,2)              -5400.4941     
     3      (1,1,3)              -5400.4939     
     4      (1,1,4)              -5400.4961     
     5      (1,1,5)              -5400.4984     
     6      (1,1,6)              -5400.5004     
     7      (1,1,7)              -5400.5029     
     8      (1,1,8)              -5400.5064     
     9      (1,1,9)              -5400.5100     
     10     (1,21,1)             -5400.5092     
     11     (1,21,2)             -5400.5037     
     12     (1,21,3)             -5400.4993     
     13     (1,21,4)             -5400.4967     
     14     (1,21,5)             -5400.4942     
     15     (1,21,6)             -5400.4913     
     16     (1,21,7)             -5400.4891     
     17     (1,21,8)             -5400.4915     
     18     (1,21,9)             -5400.5009     
 -----------------------------------------------




 HEAD WILL BE SAVED ON UNIT 1016 AT END OF TIME STEP    1, STRESS PERIOD    7


  VOLUME BUDGET FOR ENTIRE MODEL AT END OF TIME STEP    1, STRESS PERIOD   7
  ---------------------------------------------------------------------------------------------------

     CUMULATIVE VOLUME      L**3       RATES FOR THIS TIME STEP      L**3/T          PACKAGE NAME    
     ------------------                 ------------------------                     ----------------

           IN:                                      IN:
           ---                                      ---
              STO-SS =      717830.7506                STO-SS =       52852.3706     STORAGE                          
              STO-SY =       22378.1998                STO-SY =        1606.6065     STORAGE                          
                 WEL =           0.0000                   WEL =           0.0000     WEL-1                            
                RCHA =    30952123.5842                  RCHA =       42750.0000     RCH-1                            
                 CHD =           0.0000                   CHD =           0.0000     CHD-FROM-IBOUND                  

            TOTAL IN =    31692332.5346              TOTAL IN =       97208.9770

          OUT:                                     OUT:
          ----                                     ----
              STO-SS =    16442562.6098                STO-SS =           0.0000     STORAGE                          
              STO-SY =      491261.5239                STO-SY =           0.0000     STORAGE                          
                 WEL =           0.0000                   WEL =           0.0000     WEL-1                            
                RCHA =           0.0000                  RCHA =           0.0000     RCH-1                            
                 CHD =    14758510.2104                   CHD =       97208.9770     CHD-FROM-IBOUND                  

           TOTAL OUT =    31692334.3440             TOTAL OUT =       97208.9770

            IN - OUT =          -1.8094              IN - OUT =       3.7576E-05

 PERCENT DISCREPANCY =          -0.00     PERCENT DISCREPANCY =           0.00




         TIME SUMMARY AT END OF TIME STEP    1 IN STRESS PERIOD    7
                    SECONDS     MINUTES      HOURS       DAYS        YEARS
                    -----------------------------------------------------------
   TIME STEP LENGTH 1.57100E+05  2618.3      43.639      1.8183     4.97819E-03
 STRESS PERIOD TIME 1.57100E+05  2618.3      43.639      1.8183     4.97819E-03
         TOTAL TIME 1.32899E+07 2.21498E+05  3691.6      153.82     0.42113    


end timestep


start timestep kper="7" kstp="2" mode="normal"

 UBDSV1 SAVING     FLOW-JA-FACE ON UNIT   1015 AT TIME STEP      2, STRESS PERIOD      7
 UBDSV06 SAVING              WEL IN MODEL MUMODEL          PACKAGE MUMODEL         CONNECTED TO MODEL MUMODEL          PACKAGE WEL-1            ON UNIT   1015 AT TIME STEP      2, STRESS PERIOD      7
 UBDSV06 SAVING             RCHA IN MODEL MUMODEL          PACKAGE MUMODEL         CONNECTED TO MODEL MUMODEL          PACKAGE RCH-1            ON UNIT   1015 AT TIME STEP      2, STRESS PERIOD      7

 WEL PACKAGE (WEL-1) FLOW RATES   PERIOD      7   STEP        2
 -----------------------------------------------
   NUMBER   CELLID                    RATE      
 -----------------------------------------------
     1      (1,5,5)               0.0000000     
     2      (1,11,5)              0.0000000     
     3      (1,5,5)               0.0000000     
 -----------------------------------------------




 CHD PACKAGE (CHD-FROM-IBOUND) FLOW RATES   PERIOD      7   STEP        2
 -----------------------------------------------
   NUMBER   CELLID                    RATE      
 -----------------------------------------------
     1      (1,1,1)              -5398.7349     
     2      (1,1,2)              -5398.7302     
     3      (1,1,3)              -5398.7300     
     4      (1,1,4)              -5398.7322     
     5      (1,1,5)              -5398.7344     
     6      (1,1,6)              -5398.7365     
     7      (1,1,7)              -5398.7390     
     8      (1,1,8)              -5398.7425     
     9      (1,1,9)              -5398.7461     
     10     (1,21,1)             -5398.7452     
     11     (1,21,2)             -5398.7397     
     12     (1,21,3)             -5398.7353     
     13     (1,21,4)             -5398.7327     
     14     (1,21,5)             -5398.7303     
     15     (1,21,6)             -5398.7274     
     16     (1,21,7)             -5398.7253     
     17     (1,21,8)             -5398.7277     
     18     (1,21,9)             -5398.7370     
 -----------------------------------------------




 HEAD WILL BE SAVED ON UNIT 1016 AT END OF TIME STEP    2, STRESS PERIOD    7


  VOLUME BUDGET FOR ENTIRE MODEL AT END OF TIME STEP    2, STRESS PERIOD   7
  ---------------------------------------------------------------------------------------------------

     CUMULATIVE VOLUME      L**3       RATES FOR THIS TIME STEP      L**3/T          PACKAGE NAME    
     ------------------                 ------------------------                     ----------------

           IN:                                      IN:
           ---                                      ---
              STO-SS =      833084.8099                STO-SS =       52821.8472     STORAGE                          
              STO-SY =       25881.0393                STO-SY =        1605.3790     STORAGE                          
                 WEL =           0.0000                   WEL =           0.0000     WEL-1                            
                RCHA =    31045401.4853                  RCHA =       42750.0000     RCH-1                            
                 CHD =           0.0000                   CHD =           0.0000     CHD-FROM-IBOUND                  

            TOTAL IN =    31904367.3346              TOTAL IN =       97177.2262

          OUT:                                     OUT:
          ----                                     ----
              STO-SS =    16442562.6098                STO-SS =           0.0000     STORAGE                          
              STO-SY =      491261.5239                STO-SY =           0.0000     STORAGE                          
                 WEL =           0.0000                   WEL =           0.0000     WEL-1                            
                RCHA =           0.0000                  RCHA =           0.0000     RCH-1                            
                 CHD =    14970545.0102                   CHD =       97177.2262     CHD-FROM-IBOUND                  

           TOTAL OUT =    31904369.1438             TOTAL OUT =       97177.2262

            IN - OUT =          -1.8093              IN - OUT =       6.0697E-05

 PERCENT DISCREPANCY =          -0.00     PERCENT DISCREPANCY =           0.00




         TIME SUMMARY AT END OF TIME STEP    2 IN STRESS PERIOD    7
                    SECONDS     MINUTES      HOURS       DAYS        YEARS
                    -----------------------------------------------------------
   TIME STEP LENGTH 1.88520E+05  3142.0      52.367      2.1819     5.97382E-03
 STRESS PERIOD TIME 3.45619E+05  5760.3      96.005      4.0002     1.09520E-02
         TOTAL TIME 1.34784E+07 2.24640E+05  3744.0      156.00     0.42711    


end timestep


start timestep kper="7" kstp="3" mode="normal"

 UBDSV1 SAVING     FLOW-JA-FACE ON UNIT   1015 AT TIME STEP      3, STRESS PERIOD      7
 UBDSV06 SAVING              WEL IN MODEL MUMODEL          PACKAGE MUMODEL         CONNECTED TO MODEL MUMODEL          PACKAGE WEL-1            ON UNIT   1015 AT TIME STEP      3, STRESS PERIOD      7
 UBDSV06 SAVING             RCHA IN MODEL MUMODEL          PACKAGE MUMODEL         CONNECTED TO MODEL MUMODEL          PACKAGE RCH-1            ON UNIT   1015 AT TIME STEP      3, STRESS PERIOD      7

 WEL PACKAGE (WEL-1) FLOW RATES   PERIOD      7   STEP        3
 -----------------------------------------------
   NUMBER   CELLID                    RATE      
 -----------------------------------------------
     1      (1,5,5)               0.0000000     
     2      (1,11,5)              0.0000000     
     3      (1,5,5)               0.0000000     
 -----------------------------------------------




 CHD PACKAGE (CHD-FROM-IBOUND) FLOW RATES   PERIOD      7   STEP        3
 -----------------------------------------------
   NUMBER   CELLID                    RATE      
 -----------------------------------------------
     1      (1,1,1)              -5396.6310     
     2      (1,1,2)              -5396.6263     
     3      (1,1,3)              -5396.6261     
     4      (1,1,4)              -5396.6283     
     5      (1,1,5)              -5396.6305     
     6      (1,1,6)              -5396.6325     
     7      (1,1,7)              -5396.6350     
     8      (1,1,8)              -5396.6385     
     9      (1,1,9)              -5396.6421     
     10     (1,21,1)             -5396.6412     
     11     (1,21,2)             -5396.6357     
     12     (1,21,3)             -5396.6314     
     13     (1,21,4)             -5396.6288     
     14     (1,21,5)             -5396.6264     
     15     (1,21,6)             -5396.6235     
     16     (1,21,7)             -5396.6214     
     17     (1,21,8)             -5396.6238     
     18     (1,21,9)             -5396.6331     
 -----------------------------------------------




 HEAD WILL BE SAVED ON UNIT 1016 AT END OF TIME STEP    3, STRESS PERIOD    7


  VOLUME BUDGET FOR ENTIRE MODEL AT END OF TIME STEP    3, STRESS PERIOD   7
  ---------------------------------------------------------------------------------------------------

     CUMULATIVE VOLUME      L**3       RATES FOR THIS TIME STEP      L**3/T          PACKAGE NAME    
     ------------------                 ------------------------                     ----------------

           IN:                                      IN:
           ---                                      ---
              STO-SS =      971294.3548                STO-SS =       52785.4398     STORAGE                          
              STO-SY =       30080.6158                STO-SY =        1603.9159     STORAGE                          
                 WEL =           0.0000                   WEL =           0.0000     WEL-1                            
                RCHA =    31157334.9666                  RCHA =       42750.0000     RCH-1                            
                 CHD =           0.0000                   CHD =           0.0000     CHD-FROM-IBOUND                  

            TOTAL IN =    32158709.9372              TOTAL IN =       97139.3557

          OUT:                                     OUT:
          ----                                     ----
              STO-SS =    16442562.6098                STO-SS =           0.0000     STORAGE                          
              STO-SY =      491261.5239                STO-SY =           0.0000     STORAGE                          
                 WEL =           0.0000                   WEL =           0.0000     WEL-1                            
                RCHA =           0.0000                  RCHA =           0.0000     RCH-1                            
                 CHD =    15224887.6125                   CHD =       97139.3556     CHD-FROM-IBOUND                  

           TOTAL OUT =    32158711.7462             TOTAL OUT =       97139.3556

            IN - OUT =          -1.8090              IN - OUT =       9.8967E-05

 PERCENT DISCREPANCY =          -0.00     PERCENT DISCREPANCY =           0.00




         TIME SUMMARY AT END OF TIME STEP    3 IN STRESS PERIOD    7
                    SECONDS     MINUTES      HOURS       DAYS        YEARS
                    -----------------------------------------------------------
   TIME STEP LENGTH 2.26223E+05  3770.4      62.840      2.6183     7.16859E-03
 STRESS PERIOD TIME 5.71843E+05  9530.7      158.85      6.6185     1.81206E-02
         TOTAL TIME 1.37046E+07 2.28411E+05  3806.8      158.62     0.43427    


end timestep


start timestep kper="7" kstp="4" mode="normal"

 UBDSV1 SAVING     FLOW-JA-FACE ON UNIT   1015 AT TIME STEP      4, STRESS PERIOD      7
 UBDSV06 SAVING              WEL IN MODEL MUMODEL          PACKAGE MUMODEL         CONNECTED TO MODEL MUMODEL          PACKAGE WEL-1            ON UNIT   1015 AT TIME STEP      4, STRESS PERIOD      7
 UBDSV06 SAVING             RCHA IN MODEL MUMODEL          PACKAGE MUMODEL         CONNECTED TO MODEL MUMODEL          PACKAGE RCH-1            ON UNIT   1015 AT TIME STEP      4, STRESS PERIOD      7

 WEL PACKAGE (WEL-1) FLOW RATES   PERIOD      7   STEP        4
 -----------------------------------------------
   NUMBER   CELLID                    RATE      
 -----------------------------------------------
     1      (1,5,5)               0.0000000     
     2      (1,11,5)              0.0000000     
     3      (1,5,5)               0.0000000     
 -----------------------------------------------




 CHD PACKAGE (CHD-FROM-IBOUND) FLOW RATES   PERIOD      7   STEP        4
 -----------------------------------------------
   NUMBER   CELLID                    RATE      
 -----------------------------------------------
     1      (1,1,1)              -5394.1245     
     2      (1,1,2)              -5394.1199     
     3      (1,1,3)              -5394.1197     
     4      (1,1,4)              -5394.1218     
     5      (1,1,5)              -5394.1240     
     6      (1,1,6)              -5394.1260     
     7      (1,1,7)              -5394.1285     
     8      (1,1,8)              -5394.1320     
     9      (1,1,9)              -5394.1356     
     10     (1,21,1)             -5394.1346     
     11     (1,21,2)             -5394.1292     
     12     (1,21,3)             -5394.1249     
     13     (1,21,4)             -5394.1223     
     14     (1,21,5)             -5394.1199     
     15     (1,21,6)             -5394.1170     
     16     (1,21,7)             -5394.1150     
     17     (1,21,8)             -5394.1174     
     18     (1,21,9)             -5394.1266     
 -----------------------------------------------




 HEAD WILL BE SAVED ON UNIT 1016 AT END OF TIME STEP    4, STRESS PERIOD    7


  VOLUME BUDGET FOR ENTIRE MODEL AT END OF TIME STEP    4, STRESS PERIOD   7
  ---------------------------------------------------------------------------------------------------

     CUMULATIVE VOLUME      L**3       RATES FOR THIS TIME STEP      L**3/T          PACKAGE NAME    
     ------------------                 ------------------------                     ----------------

           IN:                                      IN:
           ---                                      ---
              STO-SS =     1137009.5243                STO-SS =       52742.0647     STORAGE                          
              STO-SY =       35114.6348                STO-SY =        1602.1741     STORAGE                          
                 WEL =           0.0000                   WEL =           0.0000     WEL-1                            
                RCHA =    31291655.1442                  RCHA =       42750.0000     RCH-1                            
                 CHD =           0.0000                   CHD =           0.0000     CHD-FROM-IBOUND                  

            TOTAL IN =    32463779.3033              TOTAL IN =       97094.2388

          OUT:                                     OUT:
          ----                                     ----
              STO-SS =    16442562.6098                STO-SS =           0.0000     STORAGE                          
              STO-SY =      491261.5239                STO-SY =           0.0000     STORAGE                          
                 WEL =           0.0000                   WEL =           0.0000     WEL-1                            
                RCHA =           0.0000                  RCHA =           0.0000     RCH-1                            
                 CHD =    15529956.9781                   CHD =       97094.2387     CHD-FROM-IBOUND                  

           TOTAL OUT =    32463781.1118             TOTAL OUT =       97094.2387

            IN - OUT =          -1.8085              IN - OUT =       1.6593E-04

 PERCENT DISCREPANCY =          -0.00     PERCENT DISCREPANCY =           0.00




         TIME SUMMARY AT END OF TIME STEP    4 IN STRESS PERIOD    7
                    SECONDS     MINUTES      HOURS       DAYS        YEARS
                    -----------------------------------------------------------
   TIME STEP LENGTH 2.71468E+05  4524.5      75.408      3.1420     8.60231E-03
 STRESS PERIOD TIME 8.43311E+05  14055.      234.25      9.7605     2.67229E-02
         TOTAL TIME 1.39761E+07 2.32935E+05  3882.3      161.76     0.44288    


end timestep


start timestep kper="7" kstp="5" mode="normal"

 UBDSV1 SAVING     FLOW-JA-FACE ON UNIT   1015 AT TIME STEP      5, STRESS PERIOD      7
 UBDSV06 SAVING              WEL IN MODEL MUMODEL          PACKAGE MUMODEL         CONNECTED TO MODEL MUMODEL          PACKAGE WEL-1            ON UNIT   1015 AT TIME STEP      5, STRESS PERIOD      7
 UBDSV06 SAVING             RCHA IN MODEL MUMODEL          PACKAGE MUMODEL         CONNECTED TO MODEL MUMODEL          PACKAGE RCH-1            ON UNIT   1015 AT TIME STEP      5, STRESS PERIOD      7

 WEL PACKAGE (WEL-1) FLOW RATES   PERIOD      7   STEP        5
 -----------------------------------------------
   NUMBER   CELLID                    RATE      
 -----------------------------------------------
     1      (1,5,5)               0.0000000     
     2      (1,11,5)              0.0000000     
     3      (1,5,5)               0.0000000     
 -----------------------------------------------




 CHD PACKAGE (CHD-FROM-IBOUND) FLOW RATES   PERIOD      7   STEP        5
 -----------------------------------------------
   NUMBER   CELLID                    RATE      
 -----------------------------------------------
     1      (1,1,1)              -5391.1425     
     2      (1,1,2)              -5391.1380     
     3      (1,1,3)              -5391.1377     
     4      (1,1,4)              -5391.1398     
     5      (1,1,5)              -5391.1420     
     6      (1,1,6)              -5391.1440     
     7      (1,1,7)              -5391.1465     
     8      (1,1,8)              -5391.1500     
     9      (1,1,9)              -5391.1535     
     10     (1,21,1)             -5391.1525     
     11     (1,21,2)             -5391.1472     
     12     (1,21,3)             -5391.1429     
     13     (1,21,4)             -5391.1403     
     14     (1,21,5)             -5391.1379     
     15     (1,21,6)             -5391.1351     
     16     (1,21,7)             -5391.1331     
     17     (1,21,8)             -5391.1356     
     18     (1,21,9)             -5391.1446     
 -----------------------------------------------




 HEAD WILL BE SAVED ON UNIT 1016 AT END OF TIME STEP    5, STRESS PERIOD    7


  VOLUME BUDGET FOR ENTIRE MODEL AT END OF TIME STEP    5, STRESS PERIOD   7
  ---------------------------------------------------------------------------------------------------

     CUMULATIVE VOLUME      L**3       RATES FOR THIS TIME STEP      L**3/T          PACKAGE NAME    
     ------------------                 ------------------------                     ----------------

           IN:                                      IN:
           ---                                      ---
              STO-SS =     1335673.1564                STO-SS =       52690.4596     STORAGE                          
              STO-SY =       41147.6513                STO-SY =        1600.1037     STORAGE                          
                 WEL =           0.0000                   WEL =           0.0000     WEL-1                            
                RCHA =    31452839.3573                  RCHA =       42750.0000     RCH-1                            
                 CHD =           0.0000                   CHD =           0.0000     CHD-FROM-IBOUND                  

            TOTAL IN =    32829660.1651              TOTAL IN =       97040.5634

          OUT:                                     OUT:
          ----                                     ----
              STO-SS =    16442562.6098                STO-SS =           0.0000     STORAGE                          
              STO-SY =      491261.5239                STO-SY =           0.0000     STORAGE                          
                 WEL =           0.0000                   WEL =           0.0000     WEL-1                            
                RCHA =           0.0000                  RCHA =           0.0000     RCH-1                            
                 CHD =    15895837.8388                   CHD =       97040.5631     CHD-FROM-IBOUND                  

           TOTAL OUT =    32829661.9725             TOTAL OUT =       97040.5631

            IN - OUT =          -1.8074              IN - OUT =       2.7868E-04

 PERCENT DISCREPANCY =          -0.00     PERCENT DISCREPANCY =           0.00




         TIME SUMMARY AT END OF TIME STEP    5 IN STRESS PERIOD    7
                    SECONDS     MINUTES      HOURS       DAYS        YEARS
                    -----------------------------------------------------------
   TIME STEP LENGTH 3.25762E+05  5429.4      90.489      3.7704     1.03228E-02
 STRESS PERIOD TIME 1.16907E+06  19485.      324.74      13.531     3.70457E-02
         TOTAL TIME 1.43019E+07 2.38365E+05  3972.7      165.53     0.45320    


end timestep


start timestep kper="7" kstp="6" mode="normal"

 UBDSV1 SAVING     FLOW-JA-FACE ON UNIT   1015 AT TIME STEP      6, STRESS PERIOD      7
 UBDSV06 SAVING              WEL IN MODEL MUMODEL          PACKAGE MUMODEL         CONNECTED TO MODEL MUMODEL          PACKAGE WEL-1            ON UNIT   1015 AT TIME STEP      6, STRESS PERIOD      7
 UBDSV06 SAVING             RCHA IN MODEL MUMODEL          PACKAGE MUMODEL         CONNECTED TO MODEL MUMODEL          PACKAGE RCH-1            ON UNIT   1015 AT TIME STEP      6, STRESS PERIOD      7

 WEL PACKAGE (WEL-1) FLOW RATES   PERIOD      7   STEP        6
 -----------------------------------------------
   NUMBER   CELLID                    RATE      
 -----------------------------------------------
     1      (1,5,5)               0.0000000     
     2      (1,11,5)              0.0000000     
     3      (1,5,5)               0.0000000     
 -----------------------------------------------




 CHD PACKAGE (CHD-FROM-IBOUND) FLOW RATES   PERIOD      7   STEP        6
 -----------------------------------------------
   NUMBER   CELLID                    RATE      
 -----------------------------------------------
     1      (1,1,1)              -5387.6007     
     2      (1,1,2)              -5387.5962     
     3      (1,1,3)              -5387.5959     
     4      (1,1,4)              -5387.5980     
     5      (1,1,5)              -5387.6001     
     6      (1,1,6)              -5387.6022     
     7      (1,1,7)              -5387.6046     
     8      (1,1,8)              -5387.6081     
     9      (1,1,9)              -5387.6116     
     10     (1,21,1)             -5387.6105     
     11     (1,21,2)             -5387.6052     
     12     (1,21,3)             -5387.6010     
     13     (1,21,4)             -5387.5984     
     14     (1,21,5)             -5387.5961     
     15     (1,21,6)             -5387.5933     
     16     (1,21,7)             -5387.5913     
     17     (1,21,8)             -5387.5938     
     18     (1,21,9)             -5387.6027     
 -----------------------------------------------




 HEAD WILL BE SAVED ON UNIT 1016 AT END OF TIME STEP    6, STRESS PERIOD    7


  VOLUME BUDGET FOR ENTIRE MODEL AT END OF TIME STEP    6, STRESS PERIOD   7
  ---------------------------------------------------------------------------------------------------

     CUMULATIVE VOLUME      L**3       RATES FOR THIS TIME STEP      L**3/T          PACKAGE NAME    
     ------------------                 ------------------------                     ----------------

           IN:                                      IN:
           ---                                      ---
              STO-SS =     1573792.1798                STO-SS =       52629.1629     STORAGE                          
              STO-SY =       48376.1568                STO-SY =        1597.6472     STORAGE                          
                 WEL =           0.0000                   WEL =           0.0000     WEL-1                            
                RCHA =    31646260.4130                  RCHA =       42750.0000     RCH-1                            
                 CHD =           0.0000                   CHD =           0.0000     CHD-FROM-IBOUND                  

            TOTAL IN =    33268428.7495              TOTAL IN =       96976.8101

          OUT:                                     OUT:
          ----                                     ----
              STO-SS =    16442562.6098                STO-SS =           0.0000     STORAGE                          
              STO-SY =      491261.5239                STO-SY =           0.0000     STORAGE                          
                 WEL =           0.0000                   WEL =           0.0000     WEL-1                            
                RCHA =           0.0000                  RCHA =           0.0000     RCH-1                            
                 CHD =    16334606.4212                   CHD =       96976.8096     CHD-FROM-IBOUND                  

           TOTAL OUT =    33268430.5549             TOTAL OUT =       96976.8096

            IN - OUT =          -1.8053              IN - OUT =       4.6606E-04

 PERCENT DISCREPANCY =          -0.00     PERCENT DISCREPANCY =           0.00




         TIME SUMMARY AT END OF TIME STEP    6 IN STRESS PERIOD    7
                    SECONDS     MINUTES      HOURS       DAYS        YEARS
                    -----------------------------------------------------------
   TIME STEP LENGTH 3.90914E+05  6515.2      108.59      4.5245     1.23873E-02
 STRESS PERIOD TIME 1.55999E+06  26000.      433.33      18.055     4.94330E-02
         TOTAL TIME 1.46928E+07 2.44880E+05  4081.3      170.06     0.46559    


end timestep


start timestep kper="7" kstp="7" mode="normal"

 UBDSV1 SAVING     FLOW-JA-FACE ON UNIT   1015 AT TIME STEP      7, STRESS PERIOD      7
 UBDSV06 SAVING              WEL IN MODEL MUMODEL          PACKAGE MUMODEL         CONNECTED TO MODEL MUMODEL          PACKAGE WEL-1            ON UNIT   1015 AT TIME STEP      7, STRESS PERIOD      7
 UBDSV06 SAVING             RCHA IN MODEL MUMODEL          PACKAGE MUMODEL         CONNECTED TO MODEL MUMODEL          PACKAGE RCH-1            ON UNIT   1015 AT TIME STEP      7, STRESS PERIOD      7

 WEL PACKAGE (WEL-1) FLOW RATES   PERIOD      7   STEP        7
 -----------------------------------------------
   NUMBER   CELLID                    RATE      
 -----------------------------------------------
     1      (1,5,5)               0.0000000     
     2      (1,11,5)              0.0000000     
     3      (1,5,5)               0.0000000     
 -----------------------------------------------




 CHD PACKAGE (CHD-FROM-IBOUND) FLOW RATES   PERIOD      7   STEP        7
 -----------------------------------------------
   NUMBER   CELLID                    RATE      
 -----------------------------------------------
     1      (1,1,1)              -5383.4019     
     2      (1,1,2)              -5383.3975     
     3      (1,1,3)              -5383.3972     
     4      (1,1,4)              -5383.3992     
     5      (1,1,5)              -5383.4014     
     6      (1,1,6)              -5383.4034     
     7      (1,1,7)              -5383.4058     
     8      (1,1,8)              -5383.4093     
     9      (1,1,9)              -5383.4127     
     10     (1,21,1)             -5383.4116     
     11     (1,21,2)             -5383.4064     
     12     (1,21,3)             -5383.4022     
     13     (1,21,4)             -5383.3996     
     14     (1,21,5)             -5383.3973     
     15     (1,21,6)             -5383.3946     
     16     (1,21,7)             -5383.3927     
     17     (1,21,8)             -5383.3952     
     18     (1,21,9)             -5383.4039     
 -----------------------------------------------




 HEAD WILL BE SAVED ON UNIT 1016 AT END OF TIME STEP    7, STRESS PERIOD    7


  VOLUME BUDGET FOR ENTIRE MODEL AT END OF TIME STEP    7, STRESS PERIOD   7
  ---------------------------------------------------------------------------------------------------

     CUMULATIVE VOLUME      L**3       RATES FOR THIS TIME STEP      L**3/T          PACKAGE NAME    
     ------------------                 ------------------------                     ----------------

           IN:                                      IN:
           ---                                      ---
              STO-SS =     1859140.4612                STO-SS =       52556.4938     STORAGE                          
              STO-SY =       57034.5722                STO-SY =        1594.7387     STORAGE                          
                 WEL =           0.0000                   WEL =           0.0000     WEL-1                            
                RCHA =    31878365.6798                  RCHA =       42750.0000     RCH-1                            
                 CHD =           0.0000                   CHD =           0.0000     CHD-FROM-IBOUND                  

            TOTAL IN =    33794540.7132              TOTAL IN =       96901.2326

          OUT:                                     OUT:
          ----                                     ----
              STO-SS =    16442562.6098                STO-SS =           0.0000     STORAGE                          
              STO-SY =      491261.5239                STO-SY =           0.0000     STORAGE                          
                 WEL =           0.0000                   WEL =           0.0000     WEL-1                            
                RCHA =           0.0000                  RCHA =           0.0000     RCH-1                            
                 CHD =    16860718.3806                   CHD =       96901.2318     CHD-FROM-IBOUND                  

           TOTAL OUT =    33794542.5143             TOTAL OUT =       96901.2318

            IN - OUT =          -1.8011              IN - OUT =       7.7952E-04

 PERCENT DISCREPANCY =          -0.00     PERCENT DISCREPANCY =           0.00




         TIME SUMMARY AT END OF TIME STEP    7 IN STRESS PERIOD    7
                    SECONDS     MINUTES      HOURS       DAYS        YEARS
                    -----------------------------------------------------------
   TIME STEP LENGTH 4.69097E+05  7818.3      130.30      5.4294     1.48648E-02
 STRESS PERIOD TIME 2.02908E+06  33818.      563.63      23.485     6.42978E-02
         TOTAL TIME 1.51619E+07 2.52698E+05  4211.6      175.48     0.48045    


end timestep


start timestep kper="7" kstp="8" mode="normal"

 UBDSV1 SAVING     FLOW-JA-FACE ON UNIT   1015 AT TIME STEP      8, STRESS PERIOD      7
 UBDSV06 SAVING              WEL IN MODEL MUMODEL          PACKAGE MUMODEL         CONNECTED TO MODEL MUMODEL          PACKAGE WEL-1            ON UNIT   1015 AT TIME STEP      8, STRESS PERIOD      7
 UBDSV06 SAVING             RCHA IN MODEL MUMODEL          PACKAGE MUMODEL         CONNECTED TO MODEL MUMODEL          PACKAGE RCH-1            ON UNIT   1015 AT TIME STEP      8, STRESS PERIOD      7

 WEL PACKAGE (WEL-1) FLOW RATES   PERIOD      7   STEP        8
 -----------------------------------------------
   NUMBER   CELLID                    RATE      
 -----------------------------------------------
     1      (1,5,5)               0.0000000     
     2      (1,11,5)              0.0000000     
     3      (1,5,5)               0.0000000     
 -----------------------------------------------




 CHD PACKAGE (CHD-FROM-IBOUND) FLOW RATES   PERIOD      7   STEP        8
 -----------------------------------------------
   NUMBER   CELLID                    RATE      
 -----------------------------------------------
     1      (1,1,1)              -5378.4356     
     2      (1,1,2)              -5378.4313     
     3      (1,1,3)              -5378.4310     
     4      (1,1,4)              -5378.4329     
     5      (1,1,5)              -5378.4351     
     6      (1,1,6)              -5378.4371     
     7      (1,1,7)              -5378.4395     
     8      (1,1,8)              -5378.4429     
     9      (1,1,9)              -5378.4463     
     10     (1,21,1)             -5378.4451     
     11     (1,21,2)             -5378.4400     
     12     (1,21,3)             -5378.4359     
     13     (1,21,4)             -5378.4333     
     14     (1,21,5)             -5378.4310     
     15     (1,21,6)             -5378.4283     
     16     (1,21,7)             -5378.4265     
     17     (1,21,8)             -5378.4291     
     18     (1,21,9)             -5378.4376     
 -----------------------------------------------




 HEAD WILL BE SAVED ON UNIT 1016 AT END OF TIME STEP    8, STRESS PERIOD    7


  VOLUME BUDGET FOR ENTIRE MODEL AT END OF TIME STEP    8, STRESS PERIOD   7
  ---------------------------------------------------------------------------------------------------

     CUMULATIVE VOLUME      L**3       RATES FOR THIS TIME STEP      L**3/T          PACKAGE NAME    
     ------------------                 ------------------------                     ----------------

           IN:                                      IN:
           ---                                      ---
              STO-SS =     2200998.3628                STO-SS =       52470.5359     STORAGE                          
              STO-SY =       67402.2919                STO-SY =        1591.3039     STORAGE                          
                 WEL =           0.0000                   WEL =           0.0000     WEL-1                            
                RCHA =    32156892.0000                  RCHA =       42750.0000     RCH-1                            
                 CHD =           0.0000                   CHD =           0.0000     CHD-FROM-IBOUND                  

            TOTAL IN =    34425292.6547              TOTAL IN =       96811.8398

          OUT:                                     OUT:
          ----                                     ----
              STO-SS =    16442562.6098                STO-SS =           0.0000     STORAGE                          
              STO-SY =      491261.5239                STO-SY =           0.0000     STORAGE                          
                 WEL =           0.0000                   WEL =           0.0000     WEL-1                            
                RCHA =           0.0000                  RCHA =           0.0000     RCH-1                            
                 CHD =    17491470.3137                   CHD =       96811.8385     CHD-FROM-IBOUND                  

           TOTAL OUT =    34425294.4474             TOTAL OUT =       96811.8385

            IN - OUT =          -1.7927              IN - OUT =       1.2925E-03

 PERCENT DISCREPANCY =          -0.00     PERCENT DISCREPANCY =           0.00




         TIME SUMMARY AT END OF TIME STEP    8 IN STRESS PERIOD    7
                    SECONDS     MINUTES      HOURS       DAYS        YEARS
                    -----------------------------------------------------------
   TIME STEP LENGTH 5.62916E+05  9381.9      156.37      6.5152     1.78377E-02
 STRESS PERIOD TIME 2.59200E+06  43200.      720.00      30.000     8.21355E-02
         TOTAL TIME 1.57248E+07 2.62080E+05  4368.0      182.00     0.49829    


end timestep


start timestep kper="8" kstp="1" mode="normal"


 OUTPUT CONTROL FOR STRESS PERIOD 8 IS REPEATED USING SETTINGS FROM A PREVIOUS STRESS PERIOD.


 STRESS PERIOD 8 IS TRANSIENT


 REUSING WELS FROM LAST STRESS PERIOD

 REUSING CHDS FROM LAST STRESS PERIOD
 UBDSV1 SAVING     FLOW-JA-FACE ON UNIT   1015 AT TIME STEP      1, STRESS PERIOD      8
 UBDSV06 SAVING              WEL IN MODEL MUMODEL          PACKAGE MUMODEL         CONNECTED TO MODEL MUMODEL          PACKAGE WEL-1            ON UNIT   1015 AT TIME STEP      1, STRESS PERIOD      8
 UBDSV06 SAVING             RCHA IN MODEL MUMODEL          PACKAGE MUMODEL         CONNECTED TO MODEL MUMODEL          PACKAGE RCH-1            ON UNIT   1015 AT TIME STEP      1, STRESS PERIOD      8

 WEL PACKAGE (WEL-1) FLOW RATES   PERIOD      8   STEP        1
 -----------------------------------------------
   NUMBER   CELLID                    RATE      
 -----------------------------------------------
     1      (1,5,5)               0.0000000     
     2      (1,11,5)              0.0000000     
     3      (1,5,5)               0.0000000     
 -----------------------------------------------




 CHD PACKAGE (CHD-FROM-IBOUND) FLOW RATES   PERIOD      8   STEP        1
 -----------------------------------------------
   NUMBER   CELLID                    RATE      
 -----------------------------------------------
     1      (1,1,1)              -5376.2238     
     2      (1,1,2)              -5376.2196     
     3      (1,1,3)              -5376.2192     
     4      (1,1,4)              -5376.2212     
     5      (1,1,5)              -5376.2233     
     6      (1,1,6)              -5376.2253     
     7      (1,1,7)              -5376.2277     
     8      (1,1,8)              -5376.2311     
     9      (1,1,9)              -5376.2345     
     10     (1,21,1)             -5376.2333     
     11     (1,21,2)             -5376.2282     
     12     (1,21,3)             -5376.2241     
     13     (1,21,4)             -5376.2216     
     14     (1,21,5)             -5376.2193     
     15     (1,21,6)             -5376.2166     
     16     (1,21,7)             -5376.2148     
     17     (1,21,8)             -5376.2174     
     18     (1,21,9)             -5376.2259     
 -----------------------------------------------




 HEAD WILL BE SAVED ON UNIT 1016 AT END OF TIME STEP    1, STRESS PERIOD    8


  VOLUME BUDGET FOR ENTIRE MODEL AT END OF TIME STEP    1, STRESS PERIOD   8
  ---------------------------------------------------------------------------------------------------

     CUMULATIVE VOLUME      L**3       RATES FOR THIS TIME STEP      L**3/T          PACKAGE NAME    
     ------------------                 ------------------------                     ----------------

           IN:                                      IN:
           ---                                      ---
              STO-SS =     2369702.9463                STO-SS =       89789.3945     STORAGE                          
              STO-SY =       72489.6411                STO-SY =        2707.6324     STORAGE                          
                 WEL =           0.0000                   WEL =           0.0000     WEL-1                            
                RCHA =    32164924.2637                  RCHA =        4275.0000     RCH-1                            
                 CHD =           0.0000                   CHD =           0.0000     CHD-FROM-IBOUND                  

            TOTAL IN =    34607116.8510              TOTAL IN =       96772.0269

          OUT:                                     OUT:
          ----                                     ----
              STO-SS =    16442562.6098                STO-SS =           0.0000     STORAGE                          
              STO-SY =      491261.5239                STO-SY =           0.0000     STORAGE                          
                 WEL =           0.0000                   WEL =           0.0000     WEL-1                            
                RCHA =           0.0000                  RCHA =           0.0000     RCH-1                            
                 CHD =    17673294.5100                   CHD =       96772.0269     CHD-FROM-IBOUND                  

           TOTAL OUT =    34607118.6437             TOTAL OUT =       96772.0269

            IN - OUT =          -1.7926              IN - OUT =       3.4989E-05

 PERCENT DISCREPANCY =          -0.00     PERCENT DISCREPANCY =           0.00




         TIME SUMMARY AT END OF TIME STEP    1 IN STRESS PERIOD    8
                    SECONDS     MINUTES      HOURS       DAYS        YEARS
                    -----------------------------------------------------------
   TIME STEP LENGTH 1.62336E+05  2705.6      45.093      1.8789     5.14413E-03
 STRESS PERIOD TIME 1.62336E+05  2705.6      45.093      1.8789     5.14413E-03
         TOTAL TIME 1.58871E+07 2.64786E+05  4413.1      183.88     0.50343    


end timestep


start timestep kper="8" kstp="2" mode="normal"

 UBDSV1 SAVING     FLOW-JA-FACE ON UNIT   1015 AT TIME STEP      2, STRESS PERIOD      8
 UBDSV06 SAVING              WEL IN MODEL MUMODEL          PACKAGE MUMODEL         CONNECTED TO MODEL MUMODEL          PACKAGE WEL-1            ON UNIT   1015 AT TIME STEP      2, STRESS PERIOD      8
 UBDSV06 SAVING             RCHA IN MODEL MUMODEL          PACKAGE MUMODEL         CONNECTED TO MODEL MUMODEL          PACKAGE RCH-1            ON UNIT   1015 AT TIME STEP      2, STRESS PERIOD      8

 WEL PACKAGE (WEL-1) FLOW RATES   PERIOD      8   STEP        2
 -----------------------------------------------
   NUMBER   CELLID                    RATE      
 -----------------------------------------------
     1      (1,5,5)               0.0000000     
     2      (1,11,5)              0.0000000     
     3      (1,5,5)               0.0000000     
 -----------------------------------------------




 CHD PACKAGE (CHD-FROM-IBOUND) FLOW RATES   PERIOD      8   STEP        2
 -----------------------------------------------
   NUMBER   CELLID                    RATE      
 -----------------------------------------------
     1      (1,1,1)              -5373.5824     
     2      (1,1,2)              -5373.5781     
     3      (1,1,3)              -5373.5778     
     4      (1,1,4)              -5373.5797     
     5      (1,1,5)              -5373.5818     
     6      (1,1,6)              -5373.5838     
     7      (1,1,7)              -5373.5862     
     8      (1,1,8)              -5373.5896     
     9      (1,1,9)              -5373.5930     
     10     (1,21,1)             -5373.5917     
     11     (1,21,2)             -5373.5867     
     12     (1,21,3)             -5373.5826     
     13     (1,21,4)             -5373.5801     
     14     (1,21,5)             -5373.5778     
     15     (1,21,6)             -5373.5751     
     16     (1,21,7)             -5373.5734     
     17     (1,21,8)             -5373.5760     
     18     (1,21,9)             -5373.5844     
 -----------------------------------------------




 HEAD WILL BE SAVED ON UNIT 1016 AT END OF TIME STEP    2, STRESS PERIOD    8


  VOLUME BUDGET FOR ENTIRE MODEL AT END OF TIME STEP    2, STRESS PERIOD   8
  ---------------------------------------------------------------------------------------------------

     CUMULATIVE VOLUME      L**3       RATES FOR THIS TIME STEP      L**3/T          PACKAGE NAME    
     ------------------                 ------------------------                     ----------------

           IN:                                      IN:
           ---                                      ---
              STO-SS =     2572045.2023                STO-SS =       89743.6032     STORAGE                          
              STO-SY =       78590.5028                STO-SY =        2705.8773     STORAGE                          
                 WEL =           0.0000                   WEL =           0.0000     WEL-1                            
                RCHA =    32174562.9802                  RCHA =        4275.0000     RCH-1                            
                 CHD =           0.0000                   CHD =           0.0000     CHD-FROM-IBOUND                  

            TOTAL IN =    34825198.6852              TOTAL IN =       96724.4805

          OUT:                                     OUT:
          ----                                     ----
              STO-SS =    16442562.6098                STO-SS =           0.0000     STORAGE                          
              STO-SY =      491261.5239                STO-SY =           0.0000     STORAGE                          
                 WEL =           0.0000                   WEL =           0.0000     WEL-1                            
                RCHA =           0.0000                  RCHA =           0.0000     RCH-1                            
                 CHD =    17891376.3441                   CHD =       96724.4805     CHD-FROM-IBOUND                  

           TOTAL OUT =    34825200.4777             TOTAL OUT =       96724.4805

            IN - OUT =          -1.7925              IN - OUT =       5.0262E-05

 PERCENT DISCREPANCY =          -0.00     PERCENT DISCREPANCY =           0.00




         TIME SUMMARY AT END OF TIME STEP    2 IN STRESS PERIOD    8
                    SECONDS     MINUTES      HOURS       DAYS        YEARS
                    -----------------------------------------------------------
   TIME STEP LENGTH 1.94804E+05  3246.7      54.112      2.2547     6.17295E-03
 STRESS PERIOD TIME 3.57140E+05  5952.3      99.206      4.1336     1.13171E-02
         TOTAL TIME 1.60819E+07 2.68032E+05  4467.2      186.13     0.50961    


end timestep


start timestep kper="8" kstp="3" mode="normal"

 UBDSV1 SAVING     FLOW-JA-FACE ON UNIT   1015 AT TIME STEP      3, STRESS PERIOD      8
 UBDSV06 SAVING              WEL IN MODEL MUMODEL          PACKAGE MUMODEL         CONNECTED TO MODEL MUMODEL          PACKAGE WEL-1            ON UNIT   1015 AT TIME STEP      3, STRESS PERIOD      8
 UBDSV06 SAVING             RCHA IN MODEL MUMODEL          PACKAGE MUMODEL         CONNECTED TO MODEL MUMODEL          PACKAGE RCH-1            ON UNIT   1015 AT TIME STEP      3, STRESS PERIOD      8

 WEL PACKAGE (WEL-1) FLOW RATES   PERIOD      8   STEP        3
 -----------------------------------------------
   NUMBER   CELLID                    RATE      
 -----------------------------------------------
     1      (1,5,5)               0.0000000     
     2      (1,11,5)              0.0000000     
     3      (1,5,5)               0.0000000     
 -----------------------------------------------




 CHD PACKAGE (CHD-FROM-IBOUND) FLOW RATES   PERIOD      8   STEP        3
 -----------------------------------------------
   NUMBER   CELLID                    RATE      
 -----------------------------------------------
     1      (1,1,1)              -5370.4302     
     2      (1,1,2)              -5370.4260     
     3      (1,1,3)              -5370.4257     
     4      (1,1,4)              -5370.4276     
     5      (1,1,5)              -5370.4297     
     6      (1,1,6)              -5370.4317     
     7      (1,1,7)              -5370.4341     
     8      (1,1,8)              -5370.4375     
     9      (1,1,9)              -5370.4409     
     10     (1,21,1)             -5370.4395     
     11     (1,21,2)             -5370.4345     
     12     (1,21,3)             -5370.4304     
     13     (1,21,4)             -5370.4279     
     14     (1,21,5)             -5370.4257     
     15     (1,21,6)             -5370.4230     
     16     (1,21,7)             -5370.4213     
     17     (1,21,8)             -5370.4240     
     18     (1,21,9)             -5370.4323     
 -----------------------------------------------




 HEAD WILL BE SAVED ON UNIT 1016 AT END OF TIME STEP    3, STRESS PERIOD    8


  VOLUME BUDGET FOR ENTIRE MODEL AT END OF TIME STEP    3, STRESS PERIOD   8
  ---------------------------------------------------------------------------------------------------

     CUMULATIVE VOLUME      L**3       RATES FOR THIS TIME STEP      L**3/T          PACKAGE NAME    
     ------------------                 ------------------------                     ----------------

           IN:                                      IN:
           ---                                      ---
              STO-SS =     2814708.0604                STO-SS =       89688.9577     STORAGE                          
              STO-SY =       85905.8743                STO-SY =        2703.7844     STORAGE                          
                 WEL =           0.0000                   WEL =           0.0000     WEL-1                            
                RCHA =    32186129.4399                  RCHA =        4275.0000     RCH-1                            
                 CHD =           0.0000                   CHD =           0.0000     CHD-FROM-IBOUND                  

            TOTAL IN =    35086743.3746              TOTAL IN =       96667.7421

          OUT:                                     OUT:
          ----                                     ----
              STO-SS =    16442562.6098                STO-SS =           0.0000     STORAGE                          
              STO-SY =      491261.5239                STO-SY =           0.0000     STORAGE                          
                 WEL =           0.0000                   WEL =           0.0000     WEL-1                            
                RCHA =           0.0000                  RCHA =           0.0000     RCH-1                            
                 CHD =    18152921.0332                   CHD =       96667.7420     CHD-FROM-IBOUND                  

           TOTAL OUT =    35086745.1668             TOTAL OUT =       96667.7420

            IN - OUT =          -1.7922              IN - OUT =       9.0830E-05

 PERCENT DISCREPANCY =          -0.00     PERCENT DISCREPANCY =           0.00




         TIME SUMMARY AT END OF TIME STEP    3 IN STRESS PERIOD    8
                    SECONDS     MINUTES      HOURS       DAYS        YEARS
                    -----------------------------------------------------------
   TIME STEP LENGTH 2.33764E+05  3896.1      64.935      2.7056     7.40754E-03
 STRESS PERIOD TIME 5.90904E+05  9848.4      164.14      6.8392     1.87246E-02
         TOTAL TIME 1.63157E+07 2.71928E+05  4532.1      188.84     0.51701    


end timestep


start timestep kper="8" kstp="4" mode="normal"

 UBDSV1 SAVING     FLOW-JA-FACE ON UNIT   1015 AT TIME STEP      4, STRESS PERIOD      8
 UBDSV06 SAVING              WEL IN MODEL MUMODEL          PACKAGE MUMODEL         CONNECTED TO MODEL MUMODEL          PACKAGE WEL-1            ON UNIT   1015 AT TIME STEP      4, STRESS PERIOD      8
 UBDSV06 SAVING             RCHA IN MODEL MUMODEL          PACKAGE MUMODEL         CONNECTED TO MODEL MUMODEL          PACKAGE RCH-1            ON UNIT   1015 AT TIME STEP      4, STRESS PERIOD      8

 WEL PACKAGE (WEL-1) FLOW RATES   PERIOD      8   STEP        4
 -----------------------------------------------
   NUMBER   CELLID                    RATE      
 -----------------------------------------------
     1      (1,5,5)               0.0000000     
     2      (1,11,5)              0.0000000     
     3      (1,5,5)               0.0000000     
 -----------------------------------------------




 CHD PACKAGE (CHD-FROM-IBOUND) FLOW RATES   PERIOD      8   STEP        4
 -----------------------------------------------
   NUMBER   CELLID                    RATE      
 -----------------------------------------------
     1      (1,1,1)              -5366.6727     
     2      (1,1,2)              -5366.6686     
     3      (1,1,3)              -5366.6682     
     4      (1,1,4)              -5366.6701     
     5      (1,1,5)              -5366.6722     
     6      (1,1,6)              -5366.6742     
     7      (1,1,7)              -5366.6766     
     8      (1,1,8)              -5366.6799     
     9      (1,1,9)              -5366.6833     
     10     (1,21,1)             -5366.6819     
     11     (1,21,2)             -5366.6770     
     12     (1,21,3)             -5366.6729     
     13     (1,21,4)             -5366.6704     
     14     (1,21,5)             -5366.6682     
     15     (1,21,6)             -5366.6656     
     16     (1,21,7)             -5366.6639     
     17     (1,21,8)             -5366.6666     
     18     (1,21,9)             -5366.6748     
 -----------------------------------------------




 HEAD WILL BE SAVED ON UNIT 1016 AT END OF TIME STEP    4, STRESS PERIOD    8


  VOLUME BUDGET FOR ENTIRE MODEL AT END OF TIME STEP    4, STRESS PERIOD   8
  ---------------------------------------------------------------------------------------------------

     CUMULATIVE VOLUME      L**3       RATES FOR THIS TIME STEP      L**3/T          PACKAGE NAME    
     ------------------                 ------------------------                     ----------------

           IN:                                      IN:
           ---                                      ---
              STO-SS =     3105691.9907                STO-SS =       89623.8154     STORAGE                          
              STO-SY =       94676.2274                STO-SY =        2701.2918     STORAGE                          
                 WEL =           0.0000                   WEL =           0.0000     WEL-1                            
                RCHA =    32200009.1916                  RCHA =        4275.0000     RCH-1                            
                 CHD =           0.0000                   CHD =           0.0000     CHD-FROM-IBOUND                  

            TOTAL IN =    35400377.4097              TOTAL IN =       96600.1072

          OUT:                                     OUT:
          ----                                     ----
              STO-SS =    16442562.6098                STO-SS =           0.0000     STORAGE                          
              STO-SY =      491261.5239                STO-SY =           0.0000     STORAGE                          
                 WEL =           0.0000                   WEL =           0.0000     WEL-1                            
                RCHA =           0.0000                  RCHA =           0.0000     RCH-1                            
                 CHD =    18466555.0677                   CHD =       96600.1070     CHD-FROM-IBOUND                  

           TOTAL OUT =    35400379.2014             TOTAL OUT =       96600.1070

            IN - OUT =          -1.7917              IN - OUT =       1.5827E-04

 PERCENT DISCREPANCY =          -0.00     PERCENT DISCREPANCY =           0.00




         TIME SUMMARY AT END OF TIME STEP    4 IN STRESS PERIOD    8
                    SECONDS     MINUTES      HOURS       DAYS        YEARS
                    -----------------------------------------------------------
   TIME STEP LENGTH 2.80517E+05  4675.3      77.921      3.2467     8.88905E-03
 STRESS PERIOD TIME 8.71421E+05  14524.      242.06      10.086     2.76137E-02
         TOTAL TIME 1.65962E+07 2.76604E+05  4610.1      192.09     0.52590    


end timestep


start timestep kper="8" kstp="5" mode="normal"

 UBDSV1 SAVING     FLOW-JA-FACE ON UNIT   1015 AT TIME STEP      5, STRESS PERIOD      8
 UBDSV06 SAVING              WEL IN MODEL MUMODEL          PACKAGE MUMODEL         CONNECTED TO MODEL MUMODEL          PACKAGE WEL-1            ON UNIT   1015 AT TIME STEP      5, STRESS PERIOD      8
 UBDSV06 SAVING             RCHA IN MODEL MUMODEL          PACKAGE MUMODEL         CONNECTED TO MODEL MUMODEL          PACKAGE RCH-1            ON UNIT   1015 AT TIME STEP      5, STRESS PERIOD      8

 WEL PACKAGE (WEL-1) FLOW RATES   PERIOD      8   STEP        5
 -----------------------------------------------
   NUMBER   CELLID                    RATE      
 -----------------------------------------------
     1      (1,5,5)               0.0000000     
     2      (1,11,5)              0.0000000     
     3      (1,5,5)               0.0000000     
 -----------------------------------------------




 CHD PACKAGE (CHD-FROM-IBOUND) FLOW RATES   PERIOD      8   STEP        5
 -----------------------------------------------
   NUMBER   CELLID                    RATE      
 -----------------------------------------------
     1      (1,1,1)              -5362.1993     
     2      (1,1,2)              -5362.1952     
     3      (1,1,3)              -5362.1948     
     4      (1,1,4)              -5362.1967     
     5      (1,1,5)              -5362.1987     
     6      (1,1,6)              -5362.2007     
     7      (1,1,7)              -5362.2031     
     8      (1,1,8)              -5362.2064     
     9      (1,1,9)              -5362.2098     
     10     (1,21,1)             -5362.2084     
     11     (1,21,2)             -5362.2035     
     12     (1,21,3)             -5362.1995     
     13     (1,21,4)             -5362.1970     
     14     (1,21,5)             -5362.1947     
     15     (1,21,6)             -5362.1921     
     16     (1,21,7)             -5362.1905     
     17     (1,21,8)             -5362.1932     
     18     (1,21,9)             -5362.2013     
 -----------------------------------------------




 HEAD WILL BE SAVED ON UNIT 1016 AT END OF TIME STEP    5, STRESS PERIOD    8


  VOLUME BUDGET FOR ENTIRE MODEL AT END OF TIME STEP    5, STRESS PERIOD   8
  ---------------------------------------------------------------------------------------------------

     CUMULATIVE VOLUME      L**3       RATES FOR THIS TIME STEP      L**3/T          PACKAGE NAME    
     ------------------                 ------------------------                     ----------------

           IN:                                      IN:
           ---                                      ---
              STO-SS =     3454570.5374                STO-SS =       89546.2578     STORAGE                          
              STO-SY =      105189.1016                STO-SY =        2698.3274     STORAGE                          
                 WEL =           0.0000                   WEL =           0.0000     WEL-1                            
                RCHA =    32216664.8936                  RCHA =        4275.0000     RCH-1                            
                 CHD =           0.0000                   CHD =           0.0000     CHD-FROM-IBOUND                  

            TOTAL IN =    35776424.5326              TOTAL IN =       96519.5852

          OUT:                                     OUT:
          ----                                     ----
              STO-SS =    16442562.6098                STO-SS =           0.0000     STORAGE                          
              STO-SY =      491261.5239                STO-SY =           0.0000     STORAGE                          
                 WEL =           0.0000                   WEL =           0.0000     WEL-1                            
                RCHA =           0.0000                  RCHA =           0.0000     RCH-1                            
                 CHD =    18842602.1897                   CHD =       96519.5850     CHD-FROM-IBOUND                  

           TOTAL OUT =    35776426.3233             TOTAL OUT =       96519.5850

            IN - OUT =          -1.7907              IN - OUT =       2.6329E-04

 PERCENT DISCREPANCY =          -0.00     PERCENT DISCREPANCY =           0.00




         TIME SUMMARY AT END OF TIME STEP    5 IN STRESS PERIOD    8
                    SECONDS     MINUTES      HOURS       DAYS        YEARS
                    -----------------------------------------------------------
   TIME STEP LENGTH 3.36621E+05  5610.3      93.506      3.8961     1.06669E-02
 STRESS PERIOD TIME 1.20804E+06  20134.      335.57      13.982     3.82805E-02
         TOTAL TIME 1.69328E+07 2.82214E+05  4703.6      195.98     0.53657    


end timestep


start timestep kper="8" kstp="6" mode="normal"

 UBDSV1 SAVING     FLOW-JA-FACE ON UNIT   1015 AT TIME STEP      6, STRESS PERIOD      8
 UBDSV06 SAVING              WEL IN MODEL MUMODEL          PACKAGE MUMODEL         CONNECTED TO MODEL MUMODEL          PACKAGE WEL-1            ON UNIT   1015 AT TIME STEP      6, STRESS PERIOD      8
 UBDSV06 SAVING             RCHA IN MODEL MUMODEL          PACKAGE MUMODEL         CONNECTED TO MODEL MUMODEL          PACKAGE RCH-1            ON UNIT   1015 AT TIME STEP      6, STRESS PERIOD      8

 WEL PACKAGE (WEL-1) FLOW RATES   PERIOD      8   STEP        6
 -----------------------------------------------
   NUMBER   CELLID                    RATE      
 -----------------------------------------------
     1      (1,5,5)               0.0000000     
     2      (1,11,5)              0.0000000     
     3      (1,5,5)               0.0000000     
 -----------------------------------------------




 CHD PACKAGE (CHD-FROM-IBOUND) FLOW RATES   PERIOD      8   STEP        6
 -----------------------------------------------
   NUMBER   CELLID                    RATE      
 -----------------------------------------------
     1      (1,1,1)              -5356.8814     
     2      (1,1,2)              -5356.8774     
     3      (1,1,3)              -5356.8770     
     4      (1,1,4)              -5356.8788     
     5      (1,1,5)              -5356.8809     
     6      (1,1,6)              -5356.8828     
     7      (1,1,7)              -5356.8852     
     8      (1,1,8)              -5356.8886     
     9      (1,1,9)              -5356.8919     
     10     (1,21,1)             -5356.8904     
     11     (1,21,2)             -5356.8856     
     12     (1,21,3)             -5356.8816     
     13     (1,21,4)             -5356.8791     
     14     (1,21,5)             -5356.8769     
     15     (1,21,6)             -5356.8743     
     16     (1,21,7)             -5356.8728     
     17     (1,21,8)             -5356.8755     
     18     (1,21,9)             -5356.8835     
 -----------------------------------------------




 HEAD WILL BE SAVED ON UNIT 1016 AT END OF TIME STEP    6, STRESS PERIOD    8


  VOLUME BUDGET FOR ENTIRE MODEL AT END OF TIME STEP    6, STRESS PERIOD   8
  ---------------------------------------------------------------------------------------------------

     CUMULATIVE VOLUME      L**3       RATES FOR THIS TIME STEP      L**3/T          PACKAGE NAME    
     ------------------                 ------------------------                     ----------------

           IN:                                      IN:
           ---                                      ---
              STO-SS =     3872793.7249                STO-SS =       89454.0563     STORAGE                          
              STO-SY =      117788.0966                STO-SY =        2694.8080     STORAGE                          
                 WEL =           0.0000                   WEL =           0.0000     WEL-1                            
                RCHA =    32236651.7360                  RCHA =        4275.0000     RCH-1                            
                 CHD =           0.0000                   CHD =           0.0000     CHD-FROM-IBOUND                  

            TOTAL IN =    36227233.5575              TOTAL IN =       96423.8643

          OUT:                                     OUT:
          ----                                     ----
              STO-SS =    16442562.6098                STO-SS =           0.0000     STORAGE                          
              STO-SY =      491261.5239                STO-SY =           0.0000     STORAGE                          
                 WEL =           0.0000                   WEL =           0.0000     WEL-1                            
                RCHA =           0.0000                  RCHA =           0.0000     RCH-1                            
                 CHD =    19293411.2124                   CHD =       96423.8638     CHD-FROM-IBOUND                  

           TOTAL OUT =    36227235.3461             TOTAL OUT =       96423.8638

            IN - OUT =          -1.7887              IN - OUT =       4.3924E-04

 PERCENT DISCREPANCY =          -0.00     PERCENT DISCREPANCY =           0.00




         TIME SUMMARY AT END OF TIME STEP    6 IN STRESS PERIOD    8
                    SECONDS     MINUTES      HOURS       DAYS        YEARS
                    -----------------------------------------------------------
   TIME STEP LENGTH 4.03945E+05  6732.4      112.21      4.6753     1.28002E-02
 STRESS PERIOD TIME 1.61199E+06  26866.      447.77      18.657     5.10808E-02
         TOTAL TIME 1.73368E+07 2.88946E+05  4815.8      200.66     0.54937    


end timestep


start timestep kper="8" kstp="7" mode="normal"

 UBDSV1 SAVING     FLOW-JA-FACE ON UNIT   1015 AT TIME STEP      7, STRESS PERIOD      8
 UBDSV06 SAVING              WEL IN MODEL MUMODEL          PACKAGE MUMODEL         CONNECTED TO MODEL MUMODEL          PACKAGE WEL-1            ON UNIT   1015 AT TIME STEP      7, STRESS PERIOD      8
 UBDSV06 SAVING             RCHA IN MODEL MUMODEL          PACKAGE MUMODEL         CONNECTED TO MODEL MUMODEL          PACKAGE RCH-1            ON UNIT   1015 AT TIME STEP      7, STRESS PERIOD      8

 WEL PACKAGE (WEL-1) FLOW RATES   PERIOD      8   STEP        7
 -----------------------------------------------
   NUMBER   CELLID                    RATE      
 -----------------------------------------------
     1      (1,5,5)               0.0000000     
     2      (1,11,5)              0.0000000     
     3      (1,5,5)               0.0000000     
 -----------------------------------------------




 CHD PACKAGE (CHD-FROM-IBOUND) FLOW RATES   PERIOD      8   STEP        7
 -----------------------------------------------
   NUMBER   CELLID                    RATE      
 -----------------------------------------------
     1      (1,1,1)              -5350.5709     
     2      (1,1,2)              -5350.5670     
     3      (1,1,3)              -5350.5666     
     4      (1,1,4)              -5350.5683     
     5      (1,1,5)              -5350.5704     
     6      (1,1,6)              -5350.5723     
     7      (1,1,7)              -5350.5747     
     8      (1,1,8)              -5350.5780     
     9      (1,1,9)              -5350.5813     
     10     (1,21,1)             -5350.5798     
     11     (1,21,2)             -5350.5750     
     12     (1,21,3)             -5350.5711     
     13     (1,21,4)             -5350.5686     
     14     (1,21,5)             -5350.5664     
     15     (1,21,6)             -5350.5639     
     16     (1,21,7)             -5350.5624     
     17     (1,21,8)             -5350.5651     
     18     (1,21,9)             -5350.5730     
 -----------------------------------------------




 HEAD WILL BE SAVED ON UNIT 1016 AT END OF TIME STEP    7, STRESS PERIOD    8


  VOLUME BUDGET FOR ENTIRE MODEL AT END OF TIME STEP    7, STRESS PERIOD   8
  ---------------------------------------------------------------------------------------------------

     CUMULATIVE VOLUME      L**3       RATES FOR THIS TIME STEP      L**3/T          PACKAGE NAME    
     ------------------                 ------------------------                     ----------------

           IN:                                      IN:
           ---                                      ---
              STO-SS =     4374047.6725                STO-SS =       89344.6374     STORAGE                          
              STO-SY =      132883.4959                STO-SY =        2690.6381     STORAGE                          
                 WEL =           0.0000                   WEL =           0.0000     WEL-1                            
                RCHA =    32260635.9469                  RCHA =        4275.0000     RCH-1                            
                 CHD =           0.0000                   CHD =           0.0000     CHD-FROM-IBOUND                  

            TOTAL IN =    36767567.1153              TOTAL IN =       96310.2755

          OUT:                                     OUT:
          ----                                     ----
              STO-SS =    16442562.6098                STO-SS =           0.0000     STORAGE                          
              STO-SY =      491261.5239                STO-SY =           0.0000     STORAGE                          
                 WEL =           0.0000                   WEL =           0.0000     WEL-1                            
                RCHA =           0.0000                  RCHA =           0.0000     RCH-1                            
                 CHD =    19833744.7663                   CHD =       96310.2748     CHD-FROM-IBOUND                  

           TOTAL OUT =    36767568.8999             TOTAL OUT =       96310.2748

            IN - OUT =          -1.7846              IN - OUT =       7.2686E-04

 PERCENT DISCREPANCY =          -0.00     PERCENT DISCREPANCY =           0.00




         TIME SUMMARY AT END OF TIME STEP    7 IN STRESS PERIOD    8
                    SECONDS     MINUTES      HOURS       DAYS        YEARS
                    -----------------------------------------------------------
   TIME STEP LENGTH 4.84734E+05  8078.9      134.65      5.6103     1.53603E-02
 STRESS PERIOD TIME 2.09672E+06  34945.      582.42      24.268     6.64410E-02
         TOTAL TIME 1.78215E+07 2.97025E+05  4950.4      206.27     0.56473    


end timestep


start timestep kper="8" kstp="8" mode="normal"

 UBDSV1 SAVING     FLOW-JA-FACE ON UNIT   1015 AT TIME STEP      8, STRESS PERIOD      8
 UBDSV06 SAVING              WEL IN MODEL MUMODEL          PACKAGE MUMODEL         CONNECTED TO MODEL MUMODEL          PACKAGE WEL-1            ON UNIT   1015 AT TIME STEP      8, STRESS PERIOD      8
 UBDSV06 SAVING             RCHA IN MODEL MUMODEL          PACKAGE MUMODEL         CONNECTED TO MODEL MUMODEL          PACKAGE RCH-1            ON UNIT   1015 AT TIME STEP      8, STRESS PERIOD      8

 WEL PACKAGE (WEL-1) FLOW RATES   PERIOD      8   STEP        8
 -----------------------------------------------
   NUMBER   CELLID                    RATE      
 -----------------------------------------------
     1      (1,5,5)               0.0000000     
     2      (1,11,5)              0.0000000     
     3      (1,5,5)               0.0000000     
 -----------------------------------------------




 CHD PACKAGE (CHD-FROM-IBOUND) FLOW RATES   PERIOD      8   STEP        8
 -----------------------------------------------
   NUMBER   CELLID                    RATE      
 -----------------------------------------------
     1      (1,1,1)              -5343.0979     
     2      (1,1,2)              -5343.0941     
     3      (1,1,3)              -5343.0936     
     4      (1,1,4)              -5343.0953     
     5      (1,1,5)              -5343.0973     
     6      (1,1,6)              -5343.0992     
     7      (1,1,7)              -5343.1016     
     8      (1,1,8)              -5343.1049     
     9      (1,1,9)              -5343.1081     
     10     (1,21,1)             -5343.1065     
     11     (1,21,2)             -5343.1019     
     12     (1,21,3)             -5343.0980     
     13     (1,21,4)             -5343.0955     
     14     (1,21,5)             -5343.0933     
     15     (1,21,6)             -5343.0909     
     16     (1,21,7)             -5343.0895     
     17     (1,21,8)             -5343.0923     
     18     (1,21,9)             -5343.0999     
 -----------------------------------------------




 HEAD WILL BE SAVED ON UNIT 1016 AT END OF TIME STEP    8, STRESS PERIOD    8


  VOLUME BUDGET FOR ENTIRE MODEL AT END OF TIME STEP    8, STRESS PERIOD   8
  ---------------------------------------------------------------------------------------------------

     CUMULATIVE VOLUME      L**3       RATES FOR THIS TIME STEP      L**3/T          PACKAGE NAME    
     ------------------                 ------------------------                     ----------------

           IN:                                      IN:
           ---                                      ---
              STO-SS =     4974679.9874                STO-SS =       89215.0519     STORAGE                          
              STO-SY =      150964.7912                STO-SY =        2685.7091     STORAGE                          
                 WEL =           0.0000                   WEL =           0.0000     WEL-1                            
                RCHA =    32289417.0000                  RCHA =        4275.0000     RCH-1                            
                 CHD =           0.0000                   CHD =           0.0000     CHD-FROM-IBOUND                  

            TOTAL IN =    37415061.7786              TOTAL IN =       96175.7611

          OUT:                                     OUT:
          ----                                     ----
              STO-SS =    16442562.6098                STO-SS =           0.0000     STORAGE                          
              STO-SY =      491261.5239                STO-SY =           0.0000     STORAGE                          
                 WEL =           0.0000                   WEL =           0.0000     WEL-1                            
                RCHA =           0.0000                  RCHA =           0.0000     RCH-1                            
                 CHD =    20481239.4214                   CHD =       96175.7599     CHD-FROM-IBOUND                  

           TOTAL OUT =    37415063.5551             TOTAL OUT =       96175.7599

            IN - OUT =          -1.7765              IN - OUT =       1.1987E-03

 PERCENT DISCREPANCY =          -0.00     PERCENT DISCREPANCY =           0.00




         TIME SUMMARY AT END OF TIME STEP    8 IN STRESS PERIOD    8
                    SECONDS     MINUTES      HOURS       DAYS        YEARS
                    -----------------------------------------------------------
   TIME STEP LENGTH 5.81680E+05  9694.7      161.58      6.7324     1.84323E-02
 STRESS PERIOD TIME 2.67840E+06  44640.      744.00      31.000     8.48734E-02
         TOTAL TIME 1.84032E+07 3.06720E+05  5112.0      213.00     0.58316    


end timestep


start timestep kper="9" kstp="1" mode="normal"


 OUTPUT CONTROL FOR STRESS PERIOD 9 IS REPEATED USING SETTINGS FROM A PREVIOUS STRESS PERIOD.


 STRESS PERIOD 9 IS TRANSIENT


 REUSING WELS FROM LAST STRESS PERIOD

 REUSING RCHS FROM LAST STRESS PERIOD

 REUSING CHDS FROM LAST STRESS PERIOD
 UBDSV1 SAVING     FLOW-JA-FACE ON UNIT   1015 AT TIME STEP      1, STRESS PERIOD      9
 UBDSV06 SAVING              WEL IN MODEL MUMODEL          PACKAGE MUMODEL         CONNECTED TO MODEL MUMODEL          PACKAGE WEL-1            ON UNIT   1015 AT TIME STEP      1, STRESS PERIOD      9
 UBDSV06 SAVING             RCHA IN MODEL MUMODEL          PACKAGE MUMODEL         CONNECTED TO MODEL MUMODEL          PACKAGE RCH-1            ON UNIT   1015 AT TIME STEP      1, STRESS PERIOD      9

 WEL PACKAGE (WEL-1) FLOW RATES   PERIOD      9   STEP        1
 -----------------------------------------------
   NUMBER   CELLID                    RATE      
 -----------------------------------------------
     1      (1,5,5)               0.0000000     
     2      (1,11,5)              0.0000000     
     3      (1,5,5)               0.0000000     
 -----------------------------------------------




 CHD PACKAGE (CHD-FROM-IBOUND) FLOW RATES   PERIOD      9   STEP        1
 -----------------------------------------------
   NUMBER   CELLID                    RATE      
 -----------------------------------------------
     1      (1,1,1)              -5341.0195     
     2      (1,1,2)              -5341.0157     
     3      (1,1,3)              -5341.0152     
     4      (1,1,4)              -5341.0169     
     5      (1,1,5)              -5341.0189     
     6      (1,1,6)              -5341.0208     
     7      (1,1,7)              -5341.0232     
     8      (1,1,8)              -5341.0264     
     9      (1,1,9)              -5341.0297     
     10     (1,21,1)             -5341.0281     
     11     (1,21,2)             -5341.0234     
     12     (1,21,3)             -5341.0195     
     13     (1,21,4)             -5341.0171     
     14     (1,21,5)             -5341.0149     
     15     (1,21,6)             -5341.0125     
     16     (1,21,7)             -5341.0111     
     17     (1,21,8)             -5341.0139     
     18     (1,21,9)             -5341.0215     
 -----------------------------------------------




 HEAD WILL BE SAVED ON UNIT 1016 AT END OF TIME STEP    1, STRESS PERIOD    9


  VOLUME BUDGET FOR ENTIRE MODEL AT END OF TIME STEP    1, STRESS PERIOD   9
  ---------------------------------------------------------------------------------------------------

     CUMULATIVE VOLUME      L**3       RATES FOR THIS TIME STEP      L**3/T          PACKAGE NAME    
     ------------------                 ------------------------                     ----------------

           IN:                                      IN:
           ---                                      ---
              STO-SS =     5142237.4618                STO-SS =       89178.8703     STORAGE                          
              STO-SY =      156008.6357                STO-SY =        2684.4780     STORAGE                          
                 WEL =           0.0000                   WEL =           0.0000     WEL-1                            
                RCHA =    32297449.2637                  RCHA =        4275.0000     RCH-1                            
                 CHD =           0.0000                   CHD =           0.0000     CHD-FROM-IBOUND                  

            TOTAL IN =    37595695.3612              TOTAL IN =       96138.3483

          OUT:                                     OUT:
          ----                                     ----
              STO-SS =    16442562.6098                STO-SS =           0.0000     STORAGE                          
              STO-SY =      491261.5239                STO-SY =           0.0000     STORAGE                          
                 WEL =           0.0000                   WEL =           0.0000     WEL-1                            
                RCHA =           0.0000                  RCHA =           0.0000     RCH-1                            
                 CHD =    20661873.0040                   CHD =       96138.3483     CHD-FROM-IBOUND                  

           TOTAL OUT =    37595697.1377             TOTAL OUT =       96138.3483

            IN - OUT =          -1.7764              IN - OUT =       2.9081E-05

 PERCENT DISCREPANCY =          -0.00     PERCENT DISCREPANCY =           0.00




         TIME SUMMARY AT END OF TIME STEP    1 IN STRESS PERIOD    9
                    SECONDS     MINUTES      HOURS       DAYS        YEARS
                    -----------------------------------------------------------
   TIME STEP LENGTH 1.62336E+05  2705.6      45.093      1.8789     5.14413E-03
 STRESS PERIOD TIME 1.62336E+05  2705.6      45.093      1.8789     5.14413E-03
         TOTAL TIME 1.85655E+07 3.09426E+05  5157.1      214.88     0.58831    


end timestep


start timestep kper="9" kstp="2" mode="normal"

 UBDSV1 SAVING     FLOW-JA-FACE ON UNIT   1015 AT TIME STEP      2, STRESS PERIOD      9
 UBDSV06 SAVING              WEL IN MODEL MUMODEL          PACKAGE MUMODEL         CONNECTED TO MODEL MUMODEL          PACKAGE WEL-1            ON UNIT   1015 AT TIME STEP      2, STRESS PERIOD      9
 UBDSV06 SAVING             RCHA IN MODEL MUMODEL          PACKAGE MUMODEL         CONNECTED TO MODEL MUMODEL          PACKAGE RCH-1            ON UNIT   1015 AT TIME STEP      2, STRESS PERIOD      9

 WEL PACKAGE (WEL-1) FLOW RATES   PERIOD      9   STEP        2
 -----------------------------------------------
   NUMBER   CELLID                    RATE      
 -----------------------------------------------
     1      (1,5,5)               0.0000000     
     2      (1,11,5)              0.0000000     
     3      (1,5,5)               0.0000000     
 -----------------------------------------------




 CHD PACKAGE (CHD-FROM-IBOUND) FLOW RATES   PERIOD      9   STEP        2
 -----------------------------------------------
   NUMBER   CELLID                    RATE      
 -----------------------------------------------
     1      (1,1,1)              -5338.5369     
     2      (1,1,2)              -5338.5331     
     3      (1,1,3)              -5338.5326     
     4      (1,1,4)              -5338.5343     
     5      (1,1,5)              -5338.5363     
     6      (1,1,6)              -5338.5382     
     7      (1,1,7)              -5338.5406     
     8      (1,1,8)              -5338.5439     
     9      (1,1,9)              -5338.5471     
     10     (1,21,1)             -5338.5454     
     11     (1,21,2)             -5338.5408     
     12     (1,21,3)             -5338.5370     
     13     (1,21,4)             -5338.5345     
     14     (1,21,5)             -5338.5324     
     15     (1,21,6)             -5338.5300     
     16     (1,21,7)             -5338.5286     
     17     (1,21,8)             -5338.5314     
     18     (1,21,9)             -5338.5389     
 -----------------------------------------------




 HEAD WILL BE SAVED ON UNIT 1016 AT END OF TIME STEP    2, STRESS PERIOD    9


  VOLUME BUDGET FOR ENTIRE MODEL AT END OF TIME STEP    2, STRESS PERIOD   9
  ---------------------------------------------------------------------------------------------------

     CUMULATIVE VOLUME      L**3       RATES FOR THIS TIME STEP      L**3/T          PACKAGE NAME    
     ------------------                 ------------------------                     ----------------

           IN:                                      IN:
           ---                                      ---
              STO-SS =     5343209.3673                STO-SS =       89135.8202     STORAGE                          
              STO-SY =      162057.5602                STO-SY =        2682.8419     STORAGE                          
                 WEL =           0.0000                   WEL =           0.0000     WEL-1                            
                RCHA =    32307087.9802                  RCHA =        4275.0000     RCH-1                            
                 CHD =           0.0000                   CHD =           0.0000     CHD-FROM-IBOUND                  

            TOTAL IN =    37812354.9077              TOTAL IN =       96093.6621

          OUT:                                     OUT:
          ----                                     ----
              STO-SS =    16442562.6098                STO-SS =           0.0000     STORAGE                          
              STO-SY =      491261.5239                STO-SY =           0.0000     STORAGE                          
                 WEL =           0.0000                   WEL =           0.0000     WEL-1                            
                RCHA =           0.0000                  RCHA =           0.0000     RCH-1                            
                 CHD =    20878532.5504                   CHD =       96093.6621     CHD-FROM-IBOUND                  

           TOTAL OUT =    37812356.6841             TOTAL OUT =       96093.6621

            IN - OUT =          -1.7763              IN - OUT =       4.5047E-05

 PERCENT DISCREPANCY =          -0.00     PERCENT DISCREPANCY =           0.00




         TIME SUMMARY AT END OF TIME STEP    2 IN STRESS PERIOD    9
                    SECONDS     MINUTES      HOURS       DAYS        YEARS
                    -----------------------------------------------------------
   TIME STEP LENGTH 1.94804E+05  3246.7      54.112      2.2547     6.17295E-03
 STRESS PERIOD TIME 3.57140E+05  5952.3      99.206      4.1336     1.13171E-02
         TOTAL TIME 1.87603E+07 3.12672E+05  5211.2      217.13     0.59448    


end timestep


start timestep kper="9" kstp="3" mode="normal"

 UBDSV1 SAVING     FLOW-JA-FACE ON UNIT   1015 AT TIME STEP      3, STRESS PERIOD      9
 UBDSV06 SAVING              WEL IN MODEL MUMODEL          PACKAGE MUMODEL         CONNECTED TO MODEL MUMODEL          PACKAGE WEL-1            ON UNIT   1015 AT TIME STEP      3, STRESS PERIOD      9
 UBDSV06 SAVING             RCHA IN MODEL MUMODEL          PACKAGE MUMODEL         CONNECTED TO MODEL MUMODEL          PACKAGE RCH-1            ON UNIT   1015 AT TIME STEP      3, STRESS PERIOD      9

 WEL PACKAGE (WEL-1) FLOW RATES   PERIOD      9   STEP        3
 -----------------------------------------------
   NUMBER   CELLID                    RATE      
 -----------------------------------------------
     1      (1,5,5)               0.0000000     
     2      (1,11,5)              0.0000000     
     3      (1,5,5)               0.0000000     
 -----------------------------------------------




 CHD PACKAGE (CHD-FROM-IBOUND) FLOW RATES   PERIOD      9   STEP        3
 -----------------------------------------------
   NUMBER   CELLID                    RATE      
 -----------------------------------------------
     1      (1,1,1)              -5335.5735     
     2      (1,1,2)              -5335.5698     
     3      (1,1,3)              -5335.5693     
     4      (1,1,4)              -5335.5709     
     5      (1,1,5)              -5335.5729     
     6      (1,1,6)              -5335.5748     
     7      (1,1,7)              -5335.5772     
     8      (1,1,8)              -5335.5804     
     9      (1,1,9)              -5335.5836     
     10     (1,21,1)             -5335.5820     
     11     (1,21,2)             -5335.5774     
     12     (1,21,3)             -5335.5735     
     13     (1,21,4)             -5335.5711     
     14     (1,21,5)             -5335.5690     
     15     (1,21,6)             -5335.5666     
     16     (1,21,7)             -5335.5652     
     17     (1,21,8)             -5335.5680     
     18     (1,21,9)             -5335.5755     
 -----------------------------------------------




 HEAD WILL BE SAVED ON UNIT 1016 AT END OF TIME STEP    3, STRESS PERIOD    9


  VOLUME BUDGET FOR ENTIRE MODEL AT END OF TIME STEP    3, STRESS PERIOD   9
  ---------------------------------------------------------------------------------------------------

     CUMULATIVE VOLUME      L**3       RATES FOR THIS TIME STEP      L**3/T          PACKAGE NAME    
     ------------------                 ------------------------                     ----------------

           IN:                                      IN:
           ---                                      ---
              STO-SS =     5584236.6136                STO-SS =       89084.4304     STORAGE                          
              STO-SY =      169310.9896                STO-SY =        2680.8904     STORAGE                          
                 WEL =           0.0000                   WEL =           0.0000     WEL-1                            
                RCHA =    32318654.4399                  RCHA =        4275.0000     RCH-1                            
                 CHD =           0.0000                   CHD =           0.0000     CHD-FROM-IBOUND                  

            TOTAL IN =    38072202.0431              TOTAL IN =       96040.3208

          OUT:                                     OUT:
          ----                                     ----
              STO-SS =    16442562.6098                STO-SS =           0.0000     STORAGE                          
              STO-SY =      491261.5239                STO-SY =           0.0000     STORAGE                          
                 WEL =           0.0000                   WEL =           0.0000     WEL-1                            
                RCHA =           0.0000                  RCHA =           0.0000     RCH-1                            
                 CHD =    21138379.6856                   CHD =       96040.3208     CHD-FROM-IBOUND                  

           TOTAL OUT =    38072203.8193             TOTAL OUT =       96040.3208

            IN - OUT =          -1.7761              IN - OUT =       7.6508E-05

 PERCENT DISCREPANCY =          -0.00     PERCENT DISCREPANCY =           0.00




         TIME SUMMARY AT END OF TIME STEP    3 IN STRESS PERIOD    9
                    SECONDS     MINUTES      HOURS       DAYS        YEARS
                    -----------------------------------------------------------
   TIME STEP LENGTH 2.33764E+05  3896.1      64.935      2.7056     7.40754E-03
 STRESS PERIOD TIME 5.90904E+05  9848.4      164.14      6.8392     1.87246E-02
         TOTAL TIME 1.89941E+07 3.16568E+05  5276.1      219.84     0.60189    


end timestep


start timestep kper="9" kstp="4" mode="normal"

 UBDSV1 SAVING     FLOW-JA-FACE ON UNIT   1015 AT TIME STEP      4, STRESS PERIOD      9
 UBDSV06 SAVING              WEL IN MODEL MUMODEL          PACKAGE MUMODEL         CONNECTED TO MODEL MUMODEL          PACKAGE WEL-1            ON UNIT   1015 AT TIME STEP      4, STRESS PERIOD      9
 UBDSV06 SAVING             RCHA IN MODEL MUMODEL          PACKAGE MUMODEL         CONNECTED TO MODEL MUMODEL          PACKAGE RCH-1            ON UNIT   1015 AT TIME STEP      4, STRESS PERIOD      9

 WEL PACKAGE (WEL-1) FLOW RATES   PERIOD      9   STEP        4
 -----------------------------------------------
   NUMBER   CELLID                    RATE      
 -----------------------------------------------
     1      (1,5,5)               0.0000000     
     2      (1,11,5)              0.0000000     
     3      (1,5,5)               0.0000000     
 -----------------------------------------------




 CHD PACKAGE (CHD-FROM-IBOUND) FLOW RATES   PERIOD      9   STEP        4
 -----------------------------------------------
   NUMBER   CELLID                    RATE      
 -----------------------------------------------
     1      (1,1,1)              -5332.0397     
     2      (1,1,2)              -5332.0360     
     3      (1,1,3)              -5332.0355     
     4      (1,1,4)              -5332.0372     
     5      (1,1,5)              -5332.0391     
     6      (1,1,6)              -5332.0410     
     7      (1,1,7)              -5332.0434     
     8      (1,1,8)              -5332.0466     
     9      (1,1,9)              -5332.0498     
     10     (1,21,1)             -5332.0481     
     11     (1,21,2)             -5332.0436     
     12     (1,21,3)             -5332.0397     
     13     (1,21,4)             -5332.0373     
     14     (1,21,5)             -5332.0352     
     15     (1,21,6)             -5332.0328     
     16     (1,21,7)             -5332.0315     
     17     (1,21,8)             -5332.0343     
     18     (1,21,9)             -5332.0417     
 -----------------------------------------------




 HEAD WILL BE SAVED ON UNIT 1016 AT END OF TIME STEP    4, STRESS PERIOD    9


  VOLUME BUDGET FOR ENTIRE MODEL AT END OF TIME STEP    4, STRESS PERIOD   9
  ---------------------------------------------------------------------------------------------------

     CUMULATIVE VOLUME      L**3       RATES FOR THIS TIME STEP      L**3/T          PACKAGE NAME    
     ------------------                 ------------------------                     ----------------

           IN:                                      IN:
           ---                                      ---
              STO-SS =     5873270.3394                STO-SS =       89023.1473     STORAGE                          
              STO-SY =      178007.5561                STO-SY =        2678.5653     STORAGE                          
                 WEL =           0.0000                   WEL =           0.0000     WEL-1                            
                RCHA =    32332534.1916                  RCHA =        4275.0000     RCH-1                            
                 CHD =           0.0000                   CHD =           0.0000     CHD-FROM-IBOUND                  

            TOTAL IN =    38383812.0871              TOTAL IN =       95976.7126

          OUT:                                     OUT:
          ----                                     ----
              STO-SS =    16442562.6098                STO-SS =           0.0000     STORAGE                          
              STO-SY =      491261.5239                STO-SY =           0.0000     STORAGE                          
                 WEL =           0.0000                   WEL =           0.0000     WEL-1                            
                RCHA =           0.0000                  RCHA =           0.0000     RCH-1                            
                 CHD =    21449989.7291                   CHD =       95976.7125     CHD-FROM-IBOUND                  

           TOTAL OUT =    38383813.8628             TOTAL OUT =       95976.7125

            IN - OUT =          -1.7757              IN - OUT =       1.3627E-04

 PERCENT DISCREPANCY =          -0.00     PERCENT DISCREPANCY =           0.00




         TIME SUMMARY AT END OF TIME STEP    4 IN STRESS PERIOD    9
                    SECONDS     MINUTES      HOURS       DAYS        YEARS
                    -----------------------------------------------------------
   TIME STEP LENGTH 2.80517E+05  4675.3      77.921      3.2467     8.88905E-03
 STRESS PERIOD TIME 8.71421E+05  14524.      242.06      10.086     2.76137E-02
         TOTAL TIME 1.92746E+07 3.21244E+05  5354.1      223.09     0.61078    


end timestep


start timestep kper="9" kstp="5" mode="normal"

 UBDSV1 SAVING     FLOW-JA-FACE ON UNIT   1015 AT TIME STEP      5, STRESS PERIOD      9
 UBDSV06 SAVING              WEL IN MODEL MUMODEL          PACKAGE MUMODEL         CONNECTED TO MODEL MUMODEL          PACKAGE WEL-1            ON UNIT   1015 AT TIME STEP      5, STRESS PERIOD      9
 UBDSV06 SAVING             RCHA IN MODEL MUMODEL          PACKAGE MUMODEL         CONNECTED TO MODEL MUMODEL          PACKAGE RCH-1            ON UNIT   1015 AT TIME STEP      5, STRESS PERIOD      9

 WEL PACKAGE (WEL-1) FLOW RATES   PERIOD      9   STEP        5
 -----------------------------------------------
   NUMBER   CELLID                    RATE      
 -----------------------------------------------
     1      (1,5,5)               0.0000000     
     2      (1,11,5)              0.0000000     
     3      (1,5,5)               0.0000000     
 -----------------------------------------------




 CHD PACKAGE (CHD-FROM-IBOUND) FLOW RATES   PERIOD      9   STEP        5
 -----------------------------------------------
   NUMBER   CELLID                    RATE      
 -----------------------------------------------
     1      (1,1,1)              -5327.8308     
     2      (1,1,2)              -5327.8272     
     3      (1,1,3)              -5327.8266     
     4      (1,1,4)              -5327.8283     
     5      (1,1,5)              -5327.8302     
     6      (1,1,6)              -5327.8321     
     7      (1,1,7)              -5327.8344     
     8      (1,1,8)              -5327.8376     
     9      (1,1,9)              -5327.8408     
     10     (1,21,1)             -5327.8391     
     11     (1,21,2)             -5327.8346     
     12     (1,21,3)             -5327.8308     
     13     (1,21,4)             -5327.8284     
     14     (1,21,5)             -5327.8263     
     15     (1,21,6)             -5327.8239     
     16     (1,21,7)             -5327.8227     
     17     (1,21,8)             -5327.8255     
     18     (1,21,9)             -5327.8328     
 -----------------------------------------------




 HEAD WILL BE SAVED ON UNIT 1016 AT END OF TIME STEP    5, STRESS PERIOD    9


  VOLUME BUDGET FOR ENTIRE MODEL AT END OF TIME STEP    5, STRESS PERIOD   9
  ---------------------------------------------------------------------------------------------------

     CUMULATIVE VOLUME      L**3       RATES FOR THIS TIME STEP      L**3/T          PACKAGE NAME    
     ------------------                 ------------------------                     ----------------

           IN:                                      IN:
           ---                                      ---
              STO-SS =     6219826.4203                STO-SS =       88950.1532     STORAGE                          
              STO-SY =      188432.6585                STO-SY =        2675.7991     STORAGE                          
                 WEL =           0.0000                   WEL =           0.0000     WEL-1                            
                RCHA =    32349189.8936                  RCHA =        4275.0000     RCH-1                            
                 CHD =           0.0000                   CHD =           0.0000     CHD-FROM-IBOUND                  

            TOTAL IN =    38757448.9724              TOTAL IN =       95900.9523

          OUT:                                     OUT:
          ----                                     ----
              STO-SS =    16442562.6098                STO-SS =           0.0000     STORAGE                          
              STO-SY =      491261.5239                STO-SY =           0.0000     STORAGE                          
                 WEL =           0.0000                   WEL =           0.0000     WEL-1                            
                RCHA =           0.0000                  RCHA =           0.0000     RCH-1                            
                 CHD =    21823626.6135                   CHD =       95900.9521     CHD-FROM-IBOUND                  

           TOTAL OUT =    38757450.7472             TOTAL OUT =       95900.9521

            IN - OUT =          -1.7748              IN - OUT =       2.2599E-04

 PERCENT DISCREPANCY =          -0.00     PERCENT DISCREPANCY =           0.00




         TIME SUMMARY AT END OF TIME STEP    5 IN STRESS PERIOD    9
                    SECONDS     MINUTES      HOURS       DAYS        YEARS
                    -----------------------------------------------------------
   TIME STEP LENGTH 3.36621E+05  5610.3      93.506      3.8961     1.06669E-02
 STRESS PERIOD TIME 1.20804E+06  20134.      335.57      13.982     3.82805E-02
         TOTAL TIME 1.96112E+07 3.26854E+05  5447.6      226.98     0.62144    


end timestep


start timestep kper="9" kstp="6" mode="normal"

 UBDSV1 SAVING     FLOW-JA-FACE ON UNIT   1015 AT TIME STEP      6, STRESS PERIOD      9
 UBDSV06 SAVING              WEL IN MODEL MUMODEL          PACKAGE MUMODEL         CONNECTED TO MODEL MUMODEL          PACKAGE WEL-1            ON UNIT   1015 AT TIME STEP      6, STRESS PERIOD      9
 UBDSV06 SAVING             RCHA IN MODEL MUMODEL          PACKAGE MUMODEL         CONNECTED TO MODEL MUMODEL          PACKAGE RCH-1            ON UNIT   1015 AT TIME STEP      6, STRESS PERIOD      9

 WEL PACKAGE (WEL-1) FLOW RATES   PERIOD      9   STEP        6
 -----------------------------------------------
   NUMBER   CELLID                    RATE      
 -----------------------------------------------
     1      (1,5,5)               0.0000000     
     2      (1,11,5)              0.0000000     
     3      (1,5,5)               0.0000000     
 -----------------------------------------------




 CHD PACKAGE (CHD-FROM-IBOUND) FLOW RATES   PERIOD      9   STEP        6
 -----------------------------------------------
   NUMBER   CELLID                    RATE      
 -----------------------------------------------
     1      (1,1,1)              -5322.8249     
     2      (1,1,2)              -5322.8213     
     3      (1,1,3)              -5322.8208     
     4      (1,1,4)              -5322.8224     
     5      (1,1,5)              -5322.8243     
     6      (1,1,6)              -5322.8262     
     7      (1,1,7)              -5322.8285     
     8      (1,1,8)              -5322.8317     
     9      (1,1,9)              -5322.8348     
     10     (1,21,1)             -5322.8330     
     11     (1,21,2)             -5322.8286     
     12     (1,21,3)             -5322.8249     
     13     (1,21,4)             -5322.8225     
     14     (1,21,5)             -5322.8204     
     15     (1,21,6)             -5322.8181     
     16     (1,21,7)             -5322.8169     
     17     (1,21,8)             -5322.8197     
     18     (1,21,9)             -5322.8269     
 -----------------------------------------------




 HEAD WILL BE SAVED ON UNIT 1016 AT END OF TIME STEP    6, STRESS PERIOD    9


  VOLUME BUDGET FOR ENTIRE MODEL AT END OF TIME STEP    6, STRESS PERIOD   9
  ---------------------------------------------------------------------------------------------------

     CUMULATIVE VOLUME      L**3       RATES FOR THIS TIME STEP      L**3/T          PACKAGE NAME    
     ------------------                 ------------------------                     ----------------

           IN:                                      IN:
           ---                                      ---
              STO-SS =     6635287.8069                STO-SS =       88863.3327     STORAGE                          
              STO-SY =      200927.4194                STO-SY =        2672.5133     STORAGE                          
                 WEL =           0.0000                   WEL =           0.0000     WEL-1                            
                RCHA =    32369176.7360                  RCHA =        4275.0000     RCH-1                            
                 CHD =           0.0000                   CHD =           0.0000     CHD-FROM-IBOUND                  

            TOTAL IN =    39205391.9623              TOTAL IN =       95810.8460

          OUT:                                     OUT:
          ----                                     ----
              STO-SS =    16442562.6098                STO-SS =           0.0000     STORAGE                          
              STO-SY =      491261.5239                STO-SY =           0.0000     STORAGE                          
                 WEL =           0.0000                   WEL =           0.0000     WEL-1                            
                RCHA =           0.0000                  RCHA =           0.0000     RCH-1                            
                 CHD =    22271569.6017                   CHD =       95810.8457     CHD-FROM-IBOUND                  

           TOTAL OUT =    39205393.7354             TOTAL OUT =       95810.8457

            IN - OUT =          -1.7731              IN - OUT =       3.7433E-04

 PERCENT DISCREPANCY =          -0.00     PERCENT DISCREPANCY =           0.00




         TIME SUMMARY AT END OF TIME STEP    6 IN STRESS PERIOD    9
                    SECONDS     MINUTES      HOURS       DAYS        YEARS
                    -----------------------------------------------------------
   TIME STEP LENGTH 4.03945E+05  6732.4      112.21      4.6753     1.28002E-02
 STRESS PERIOD TIME 1.61199E+06  26866.      447.77      18.657     5.10808E-02
         TOTAL TIME 2.00152E+07 3.33586E+05  5559.8      231.66     0.63424    


end timestep


start timestep kper="9" kstp="7" mode="normal"

 UBDSV1 SAVING     FLOW-JA-FACE ON UNIT   1015 AT TIME STEP      7, STRESS PERIOD      9
 UBDSV06 SAVING              WEL IN MODEL MUMODEL          PACKAGE MUMODEL         CONNECTED TO MODEL MUMODEL          PACKAGE WEL-1            ON UNIT   1015 AT TIME STEP      7, STRESS PERIOD      9
 UBDSV06 SAVING             RCHA IN MODEL MUMODEL          PACKAGE MUMODEL         CONNECTED TO MODEL MUMODEL          PACKAGE RCH-1            ON UNIT   1015 AT TIME STEP      7, STRESS PERIOD      9

 WEL PACKAGE (WEL-1) FLOW RATES   PERIOD      9   STEP        7
 -----------------------------------------------
   NUMBER   CELLID                    RATE      
 -----------------------------------------------
     1      (1,5,5)               0.0000000     
     2      (1,11,5)              0.0000000     
     3      (1,5,5)               0.0000000     
 -----------------------------------------------




 CHD PACKAGE (CHD-FROM-IBOUND) FLOW RATES   PERIOD      9   STEP        7
 -----------------------------------------------
   NUMBER   CELLID                    RATE      
 -----------------------------------------------
     1      (1,1,1)              -5316.8809     
     2      (1,1,2)              -5316.8775     
     3      (1,1,3)              -5316.8769     
     4      (1,1,4)              -5316.8785     
     5      (1,1,5)              -5316.8804     
     6      (1,1,6)              -5316.8822     
     7      (1,1,7)              -5316.8845     
     8      (1,1,8)              -5316.8877     
     9      (1,1,9)              -5316.8908     
     10     (1,21,1)             -5316.8890     
     11     (1,21,2)             -5316.8847     
     12     (1,21,3)             -5316.8809     
     13     (1,21,4)             -5316.8785     
     14     (1,21,5)             -5316.8764     
     15     (1,21,6)             -5316.8742     
     16     (1,21,7)             -5316.8730     
     17     (1,21,8)             -5316.8759     
     18     (1,21,9)             -5316.8829     
 -----------------------------------------------




 HEAD WILL BE SAVED ON UNIT 1016 AT END OF TIME STEP    7, STRESS PERIOD    9


  VOLUME BUDGET FOR ENTIRE MODEL AT END OF TIME STEP    7, STRESS PERIOD   9
  ---------------------------------------------------------------------------------------------------

     CUMULATIVE VOLUME      L**3       RATES FOR THIS TIME STEP      L**3/T          PACKAGE NAME    
     ------------------                 ------------------------                     ----------------

           IN:                                      IN:
           ---                                      ---
              STO-SS =     7133263.0725                STO-SS =       88760.2377     STORAGE                          
              STO-SY =      215899.2782                STO-SY =        2668.6180     STORAGE                          
                 WEL =           0.0000                   WEL =           0.0000     WEL-1                            
                RCHA =    32393160.9469                  RCHA =        4275.0000     RCH-1                            
                 CHD =           0.0000                   CHD =           0.0000     CHD-FROM-IBOUND                  

            TOTAL IN =    39742323.2975              TOTAL IN =       95703.8556

          OUT:                                     OUT:
          ----                                     ----
              STO-SS =    16442562.6098                STO-SS =           0.0000     STORAGE                          
              STO-SY =      491261.5239                STO-SY =           0.0000     STORAGE                          
                 WEL =           0.0000                   WEL =           0.0000     WEL-1                            
                RCHA =           0.0000                  RCHA =           0.0000     RCH-1                            
                 CHD =    22808500.9334                   CHD =       95703.8550     CHD-FROM-IBOUND                  

           TOTAL OUT =    39742325.0671             TOTAL OUT =       95703.8550

            IN - OUT =          -1.7696              IN - OUT =       6.2093E-04

 PERCENT DISCREPANCY =          -0.00     PERCENT DISCREPANCY =           0.00




         TIME SUMMARY AT END OF TIME STEP    7 IN STRESS PERIOD    9
                    SECONDS     MINUTES      HOURS       DAYS        YEARS
                    -----------------------------------------------------------
   TIME STEP LENGTH 4.84734E+05  8078.9      134.65      5.6103     1.53603E-02
 STRESS PERIOD TIME 2.09672E+06  34945.      582.42      24.268     6.64410E-02
         TOTAL TIME 2.04999E+07 3.41665E+05  5694.4      237.27     0.64960    


end timestep


start timestep kper="9" kstp="8" mode="normal"

 UBDSV1 SAVING     FLOW-JA-FACE ON UNIT   1015 AT TIME STEP      8, STRESS PERIOD      9
 UBDSV06 SAVING              WEL IN MODEL MUMODEL          PACKAGE MUMODEL         CONNECTED TO MODEL MUMODEL          PACKAGE WEL-1            ON UNIT   1015 AT TIME STEP      8, STRESS PERIOD      9
 UBDSV06 SAVING             RCHA IN MODEL MUMODEL          PACKAGE MUMODEL         CONNECTED TO MODEL MUMODEL          PACKAGE RCH-1            ON UNIT   1015 AT TIME STEP      8, STRESS PERIOD      9

 WEL PACKAGE (WEL-1) FLOW RATES   PERIOD      9   STEP        8
 -----------------------------------------------
   NUMBER   CELLID                    RATE      
 -----------------------------------------------
     1      (1,5,5)               0.0000000     
     2      (1,11,5)              0.0000000     
     3      (1,5,5)               0.0000000     
 -----------------------------------------------




 CHD PACKAGE (CHD-FROM-IBOUND) FLOW RATES   PERIOD      9   STEP        8
 -----------------------------------------------
   NUMBER   CELLID                    RATE      
 -----------------------------------------------
     1      (1,1,1)              -5309.8370     
     2      (1,1,2)              -5309.8336     
     3      (1,1,3)              -5309.8330     
     4      (1,1,4)              -5309.8345     
     5      (1,1,5)              -5309.8364     
     6      (1,1,6)              -5309.8383     
     7      (1,1,7)              -5309.8405     
     8      (1,1,8)              -5309.8437     
     9      (1,1,9)              -5309.8468     
     10     (1,21,1)             -5309.8449     
     11     (1,21,2)             -5309.8406     
     12     (1,21,3)             -5309.8369     
     13     (1,21,4)             -5309.8346     
     14     (1,21,5)             -5309.8325     
     15     (1,21,6)             -5309.8303     
     16     (1,21,7)             -5309.8292     
     17     (1,21,8)             -5309.8321     
     18     (1,21,9)             -5309.8390     
 -----------------------------------------------




 HEAD WILL BE SAVED ON UNIT 1016 AT END OF TIME STEP    8, STRESS PERIOD    9


  VOLUME BUDGET FOR ENTIRE MODEL AT END OF TIME STEP    8, STRESS PERIOD   9
  ---------------------------------------------------------------------------------------------------

     CUMULATIVE VOLUME      L**3       RATES FOR THIS TIME STEP      L**3/T          PACKAGE NAME    
     ------------------                 ------------------------                     ----------------

           IN:                                      IN:
           ---                                      ---
              STO-SS =     7730010.8043                STO-SS =       88638.0545     STORAGE                          
              STO-SY =      233834.4880                STO-SY =        2664.0103     STORAGE                          
                 WEL =           0.0000                   WEL =           0.0000     WEL-1                            
                RCHA =    32421942.0000                  RCHA =        4275.0000     RCH-1                            
                 CHD =           0.0000                   CHD =           0.0000     CHD-FROM-IBOUND                  

            TOTAL IN =    40385787.2922              TOTAL IN =       95577.0649

          OUT:                                     OUT:
          ----                                     ----
              STO-SS =    16442562.6098                STO-SS =           0.0000     STORAGE                          
              STO-SY =      491261.5239                STO-SY =           0.0000     STORAGE                          
                 WEL =           0.0000                   WEL =           0.0000     WEL-1                            
                RCHA =           0.0000                  RCHA =           0.0000     RCH-1                            
                 CHD =    23451964.9213                   CHD =       95577.0638     CHD-FROM-IBOUND                  

           TOTAL OUT =    40385789.0549             TOTAL OUT =       95577.0638

            IN - OUT =          -1.7627              IN - OUT =       1.0245E-03

 PERCENT DISCREPANCY =          -0.00     PERCENT DISCREPANCY =           0.00




         TIME SUMMARY AT END OF TIME STEP    8 IN STRESS PERIOD    9
                    SECONDS     MINUTES      HOURS       DAYS        YEARS
                    -----------------------------------------------------------
   TIME STEP LENGTH 5.81680E+05  9694.7      161.58      6.7324     1.84323E-02
 STRESS PERIOD TIME 2.67840E+06  44640.      744.00      31.000     8.48734E-02
         TOTAL TIME 2.10816E+07 3.51360E+05  5856.0      244.00     0.66804    


end timestep


start timestep kper="10" kstp="1" mode="normal"


 OUTPUT CONTROL FOR STRESS PERIOD 10 IS REPEATED USING SETTINGS FROM A PREVIOUS STRESS PERIOD.


 STRESS PERIOD 10 IS TRANSIENT


 REUSING WELS FROM LAST STRESS PERIOD

 REUSING RCHS FROM LAST STRESS PERIOD

 REUSING CHDS FROM LAST STRESS PERIOD
 UBDSV1 SAVING     FLOW-JA-FACE ON UNIT   1015 AT TIME STEP      1, STRESS PERIOD     10
 UBDSV06 SAVING              WEL IN MODEL MUMODEL          PACKAGE MUMODEL         CONNECTED TO MODEL MUMODEL          PACKAGE WEL-1            ON UNIT   1015 AT TIME STEP      1, STRESS PERIOD     10
 UBDSV06 SAVING             RCHA IN MODEL MUMODEL          PACKAGE MUMODEL         CONNECTED TO MODEL MUMODEL          PACKAGE RCH-1            ON UNIT   1015 AT TIME STEP      1, STRESS PERIOD     10

 WEL PACKAGE (WEL-1) FLOW RATES   PERIOD     10   STEP        1
 -----------------------------------------------
   NUMBER   CELLID                    RATE      
 -----------------------------------------------
     1      (1,5,5)               0.0000000     
     2      (1,11,5)              0.0000000     
     3      (1,5,5)               0.0000000     
 -----------------------------------------------




 CHD PACKAGE (CHD-FROM-IBOUND) FLOW RATES   PERIOD     10   STEP        1
 -----------------------------------------------
   NUMBER   CELLID                    RATE      
 -----------------------------------------------
     1      (1,1,1)              -5307.9405     
     2      (1,1,2)              -5307.9371     
     3      (1,1,3)              -5307.9365     
     4      (1,1,4)              -5307.9380     
     5      (1,1,5)              -5307.9399     
     6      (1,1,6)              -5307.9417     
     7      (1,1,7)              -5307.9440     
     8      (1,1,8)              -5307.9472     
     9      (1,1,9)              -5307.9502     
     10     (1,21,1)             -5307.9483     
     11     (1,21,2)             -5307.9441     
     12     (1,21,3)             -5307.9404     
     13     (1,21,4)             -5307.9381     
     14     (1,21,5)             -5307.9360     
     15     (1,21,6)             -5307.9338     
     16     (1,21,7)             -5307.9327     
     17     (1,21,8)             -5307.9356     
     18     (1,21,9)             -5307.9425     
 -----------------------------------------------




 HEAD WILL BE SAVED ON UNIT 1016 AT END OF TIME STEP    1, STRESS PERIOD   10


  VOLUME BUDGET FOR ENTIRE MODEL AT END OF TIME STEP    1, STRESS PERIOD  10
  ---------------------------------------------------------------------------------------------------

     CUMULATIVE VOLUME      L**3       RATES FOR THIS TIME STEP      L**3/T          PACKAGE NAME    
     ------------------                 ------------------------                     ----------------

           IN:                                      IN:
           ---                                      ---
              STO-SS =     7891119.7764                STO-SS =       88605.0198     STORAGE                          
              STO-SY =      238676.4053                STO-SY =        2662.9068     STORAGE                          
                 WEL =           0.0000                   WEL =           0.0000     WEL-1                            
                RCHA =    32429715.1584                  RCHA =        4275.0000     RCH-1                            
                 CHD =           0.0000                   CHD =           0.0000     CHD-FROM-IBOUND                  

            TOTAL IN =    40559511.3402              TOTAL IN =       95542.9266

          OUT:                                     OUT:
          ----                                     ----
              STO-SS =    16442562.6098                STO-SS =           0.0000     STORAGE                          
              STO-SY =      491261.5239                STO-SY =           0.0000     STORAGE                          
                 WEL =           0.0000                   WEL =           0.0000     WEL-1                            
                RCHA =           0.0000                  RCHA =           0.0000     RCH-1                            
                 CHD =    23625688.9691                   CHD =       95542.9266     CHD-FROM-IBOUND                  

           TOTAL OUT =    40559513.1028             TOTAL OUT =       95542.9266

            IN - OUT =          -1.7626              IN - OUT =       2.4341E-05

 PERCENT DISCREPANCY =          -0.00     PERCENT DISCREPANCY =           0.00




         TIME SUMMARY AT END OF TIME STEP    1 IN STRESS PERIOD   10
                    SECONDS     MINUTES      HOURS       DAYS        YEARS
                    -----------------------------------------------------------
   TIME STEP LENGTH 1.57100E+05  2618.3      43.639      1.8183     4.97819E-03
 STRESS PERIOD TIME 1.57100E+05  2618.3      43.639      1.8183     4.97819E-03
         TOTAL TIME 2.12387E+07 3.53978E+05  5899.6      245.82     0.67301    


end timestep


start timestep kper="10" kstp="2" mode="normal"

 UBDSV1 SAVING     FLOW-JA-FACE ON UNIT   1015 AT TIME STEP      2, STRESS PERIOD     10
 UBDSV06 SAVING              WEL IN MODEL MUMODEL          PACKAGE MUMODEL         CONNECTED TO MODEL MUMODEL          PACKAGE WEL-1            ON UNIT   1015 AT TIME STEP      2, STRESS PERIOD     10
 UBDSV06 SAVING             RCHA IN MODEL MUMODEL          PACKAGE MUMODEL         CONNECTED TO MODEL MUMODEL          PACKAGE RCH-1            ON UNIT   1015 AT TIME STEP      2, STRESS PERIOD     10

 WEL PACKAGE (WEL-1) FLOW RATES   PERIOD     10   STEP        2
 -----------------------------------------------
   NUMBER   CELLID                    RATE      
 -----------------------------------------------
     1      (1,5,5)               0.0000000     
     2      (1,11,5)              0.0000000     
     3      (1,5,5)               0.0000000     
 -----------------------------------------------




 CHD PACKAGE (CHD-FROM-IBOUND) FLOW RATES   PERIOD     10   STEP        2
 -----------------------------------------------
   NUMBER   CELLID                    RATE      
 -----------------------------------------------
     1      (1,1,1)              -5305.6744     
     2      (1,1,2)              -5305.6710     
     3      (1,1,3)              -5305.6704     
     4      (1,1,4)              -5305.6719     
     5      (1,1,5)              -5305.6738     
     6      (1,1,6)              -5305.6757     
     7      (1,1,7)              -5305.6779     
     8      (1,1,8)              -5305.6811     
     9      (1,1,9)              -5305.6841     
     10     (1,21,1)             -5305.6822     
     11     (1,21,2)             -5305.6780     
     12     (1,21,3)             -5305.6743     
     13     (1,21,4)             -5305.6720     
     14     (1,21,5)             -5305.6699     
     15     (1,21,6)             -5305.6677     
     16     (1,21,7)             -5305.6667     
     17     (1,21,8)             -5305.6696     
     18     (1,21,9)             -5305.6764     
 -----------------------------------------------




 HEAD WILL BE SAVED ON UNIT 1016 AT END OF TIME STEP    2, STRESS PERIOD   10


  VOLUME BUDGET FOR ENTIRE MODEL AT END OF TIME STEP    2, STRESS PERIOD  10
  ---------------------------------------------------------------------------------------------------

     CUMULATIVE VOLUME      L**3       RATES FOR THIS TIME STEP      L**3/T          PACKAGE NAME    
     ------------------                 ------------------------                     ----------------

           IN:                                      IN:
           ---                                      ---
              STO-SS =     8084364.7744                STO-SS =       88565.7114     STORAGE                          
              STO-SY =      244483.4744                STO-SY =        2661.4257     STORAGE                          
                 WEL =           0.0000                   WEL =           0.0000     WEL-1                            
                RCHA =    32439042.9485                  RCHA =        4275.0000     RCH-1                            
                 CHD =           0.0000                   CHD =           0.0000     CHD-FROM-IBOUND                  

            TOTAL IN =    40767891.1974              TOTAL IN =       95502.1371

          OUT:                                     OUT:
          ----                                     ----
              STO-SS =    16442562.6098                STO-SS =           0.0000     STORAGE                          
              STO-SY =      491261.5239                STO-SY =           0.0000     STORAGE                          
                 WEL =           0.0000                   WEL =           0.0000     WEL-1                            
                RCHA =           0.0000                  RCHA =           0.0000     RCH-1                            
                 CHD =    23834068.8263                   CHD =       95502.1370     CHD-FROM-IBOUND                  

           TOTAL OUT =    40767892.9599             TOTAL OUT =       95502.1370

            IN - OUT =          -1.7626              IN - OUT =       3.9287E-05

 PERCENT DISCREPANCY =          -0.00     PERCENT DISCREPANCY =           0.00




         TIME SUMMARY AT END OF TIME STEP    2 IN STRESS PERIOD   10
                    SECONDS     MINUTES      HOURS       DAYS        YEARS
                    -----------------------------------------------------------
   TIME STEP LENGTH 1.88520E+05  3142.0      52.367      2.1819     5.97382E-03
 STRESS PERIOD TIME 3.45619E+05  5760.3      96.005      4.0002     1.09520E-02
         TOTAL TIME 2.14272E+07 3.57120E+05  5952.0      248.00     0.67899    


end timestep


start timestep kper="10" kstp="3" mode="normal"

 UBDSV1 SAVING     FLOW-JA-FACE ON UNIT   1015 AT TIME STEP      3, STRESS PERIOD     10
 UBDSV06 SAVING              WEL IN MODEL MUMODEL          PACKAGE MUMODEL         CONNECTED TO MODEL MUMODEL          PACKAGE WEL-1            ON UNIT   1015 AT TIME STEP      3, STRESS PERIOD     10
 UBDSV06 SAVING             RCHA IN MODEL MUMODEL          PACKAGE MUMODEL         CONNECTED TO MODEL MUMODEL          PACKAGE RCH-1            ON UNIT   1015 AT TIME STEP      3, STRESS PERIOD     10

 WEL PACKAGE (WEL-1) FLOW RATES   PERIOD     10   STEP        3
 -----------------------------------------------
   NUMBER   CELLID                    RATE      
 -----------------------------------------------
     1      (1,5,5)               0.0000000     
     2      (1,11,5)              0.0000000     
     3      (1,5,5)               0.0000000     
 -----------------------------------------------




 CHD PACKAGE (CHD-FROM-IBOUND) FLOW RATES   PERIOD     10   STEP        3
 -----------------------------------------------
   NUMBER   CELLID                    RATE      
 -----------------------------------------------
     1      (1,1,1)              -5302.9682     
     2      (1,1,2)              -5302.9649     
     3      (1,1,3)              -5302.9643     
     4      (1,1,4)              -5302.9658     
     5      (1,1,5)              -5302.9676     
     6      (1,1,6)              -5302.9694     
     7      (1,1,7)              -5302.9717     
     8      (1,1,8)              -5302.9748     
     9      (1,1,9)              -5302.9779     
     10     (1,21,1)             -5302.9759     
     11     (1,21,2)             -5302.9717     
     12     (1,21,3)             -5302.9681     
     13     (1,21,4)             -5302.9658     
     14     (1,21,5)             -5302.9637     
     15     (1,21,6)             -5302.9616     
     16     (1,21,7)             -5302.9605     
     17     (1,21,8)             -5302.9634     
     18     (1,21,9)             -5302.9702     
 -----------------------------------------------




 HEAD WILL BE SAVED ON UNIT 1016 AT END OF TIME STEP    3, STRESS PERIOD   10


  VOLUME BUDGET FOR ENTIRE MODEL AT END OF TIME STEP    3, STRESS PERIOD  10
  ---------------------------------------------------------------------------------------------------

     CUMULATIVE VOLUME      L**3       RATES FOR THIS TIME STEP      L**3/T          PACKAGE NAME    
     ------------------                 ------------------------                     ----------------

           IN:                                      IN:
           ---                                      ---
              STO-SS =     8316135.8572                STO-SS =       88518.7673     STORAGE                          
              STO-SY =      251447.3295                STO-SY =        2659.6582     STORAGE                          
                 WEL =           0.0000                   WEL =           0.0000     WEL-1                            
                RCHA =    32450236.2967                  RCHA =        4275.0000     RCH-1                            
                 CHD =           0.0000                   CHD =           0.0000     CHD-FROM-IBOUND                  

            TOTAL IN =    41017819.4833              TOTAL IN =       95453.4255

          OUT:                                     OUT:
          ----                                     ----
              STO-SS =    16442562.6098                STO-SS =           0.0000     STORAGE                          
              STO-SY =      491261.5239                STO-SY =           0.0000     STORAGE                          
                 WEL =           0.0000                   WEL =           0.0000     WEL-1                            
                RCHA =           0.0000                  RCHA =           0.0000     RCH-1                            
                 CHD =    24083997.1120                   CHD =       95453.4255     CHD-FROM-IBOUND                  

           TOTAL OUT =    41017821.2457             TOTAL OUT =       95453.4255

            IN - OUT =          -1.7624              IN - OUT =       6.2999E-05

 PERCENT DISCREPANCY =          -0.00     PERCENT DISCREPANCY =           0.00




         TIME SUMMARY AT END OF TIME STEP    3 IN STRESS PERIOD   10
                    SECONDS     MINUTES      HOURS       DAYS        YEARS
                    -----------------------------------------------------------
   TIME STEP LENGTH 2.26223E+05  3770.4      62.840      2.6183     7.16859E-03
 STRESS PERIOD TIME 5.71843E+05  9530.7      158.85      6.6185     1.81206E-02
         TOTAL TIME 2.16534E+07 3.60891E+05  6014.8      250.62     0.68616    


end timestep


start timestep kper="10" kstp="4" mode="normal"

 UBDSV1 SAVING     FLOW-JA-FACE ON UNIT   1015 AT TIME STEP      4, STRESS PERIOD     10
 UBDSV06 SAVING              WEL IN MODEL MUMODEL          PACKAGE MUMODEL         CONNECTED TO MODEL MUMODEL          PACKAGE WEL-1            ON UNIT   1015 AT TIME STEP      4, STRESS PERIOD     10
 UBDSV06 SAVING             RCHA IN MODEL MUMODEL          PACKAGE MUMODEL         CONNECTED TO MODEL MUMODEL          PACKAGE RCH-1            ON UNIT   1015 AT TIME STEP      4, STRESS PERIOD     10

 WEL PACKAGE (WEL-1) FLOW RATES   PERIOD     10   STEP        4
 -----------------------------------------------
   NUMBER   CELLID                    RATE      
 -----------------------------------------------
     1      (1,5,5)               0.0000000     
     2      (1,11,5)              0.0000000     
     3      (1,5,5)               0.0000000     
 -----------------------------------------------




 CHD PACKAGE (CHD-FROM-IBOUND) FLOW RATES   PERIOD     10   STEP        4
 -----------------------------------------------
   NUMBER   CELLID                    RATE      
 -----------------------------------------------
     1      (1,1,1)              -5299.7394     
     2      (1,1,2)              -5299.7361     
     3      (1,1,3)              -5299.7355     
     4      (1,1,4)              -5299.7370     
     5      (1,1,5)              -5299.7388     
     6      (1,1,6)              -5299.7407     
     7      (1,1,7)              -5299.7429     
     8      (1,1,8)              -5299.7460     
     9      (1,1,9)              -5299.7490     
     10     (1,21,1)             -5299.7471     
     11     (1,21,2)             -5299.7429     
     12     (1,21,3)             -5299.7393     
     13     (1,21,4)             -5299.7370     
     14     (1,21,5)             -5299.7349     
     15     (1,21,6)             -5299.7328     
     16     (1,21,7)             -5299.7318     
     17     (1,21,8)             -5299.7347     
     18     (1,21,9)             -5299.7414     
 -----------------------------------------------




 HEAD WILL BE SAVED ON UNIT 1016 AT END OF TIME STEP    4, STRESS PERIOD   10


  VOLUME BUDGET FOR ENTIRE MODEL AT END OF TIME STEP    4, STRESS PERIOD  10
  ---------------------------------------------------------------------------------------------------

     CUMULATIVE VOLUME      L**3       RATES FOR THIS TIME STEP      L**3/T          PACKAGE NAME    
     ------------------                 ------------------------                     ----------------

           IN:                                      IN:
           ---                                      ---
              STO-SS =     8594085.1701                STO-SS =       88462.7562     STORAGE                          
              STO-SY =      259797.3355                STO-SY =        2657.5513     STORAGE                          
                 WEL =           0.0000                   WEL =           0.0000     WEL-1                            
                RCHA =    32463668.3144                  RCHA =        4275.0000     RCH-1                            
                 CHD =           0.0000                   CHD =           0.0000     CHD-FROM-IBOUND                  

            TOTAL IN =    41317550.8200              TOTAL IN =       95395.3075

          OUT:                                     OUT:
          ----                                     ----
              STO-SS =    16442562.6098                STO-SS =           0.0000     STORAGE                          
              STO-SY =      491261.5239                STO-SY =           0.0000     STORAGE                          
                 WEL =           0.0000                   WEL =           0.0000     WEL-1                            
                RCHA =           0.0000                  RCHA =           0.0000     RCH-1                            
                 CHD =    24383728.4484                   CHD =       95395.3074     CHD-FROM-IBOUND                  

           TOTAL OUT =    41317552.5821             TOTAL OUT =       95395.3074

            IN - OUT =          -1.7621              IN - OUT =       1.0405E-04

 PERCENT DISCREPANCY =          -0.00     PERCENT DISCREPANCY =           0.00




         TIME SUMMARY AT END OF TIME STEP    4 IN STRESS PERIOD   10
                    SECONDS     MINUTES      HOURS       DAYS        YEARS
                    -----------------------------------------------------------
   TIME STEP LENGTH 2.71468E+05  4524.5      75.408      3.1420     8.60231E-03
 STRESS PERIOD TIME 8.43311E+05  14055.      234.25      9.7605     2.67229E-02
         TOTAL TIME 2.19249E+07 3.65415E+05  6090.3      253.76     0.69476    


end timestep


start timestep kper="10" kstp="5" mode="normal"

 UBDSV1 SAVING     FLOW-JA-FACE ON UNIT   1015 AT TIME STEP      5, STRESS PERIOD     10
 UBDSV06 SAVING              WEL IN MODEL MUMODEL          PACKAGE MUMODEL         CONNECTED TO MODEL MUMODEL          PACKAGE WEL-1            ON UNIT   1015 AT TIME STEP      5, STRESS PERIOD     10
 UBDSV06 SAVING             RCHA IN MODEL MUMODEL          PACKAGE MUMODEL         CONNECTED TO MODEL MUMODEL          PACKAGE RCH-1            ON UNIT   1015 AT TIME STEP      5, STRESS PERIOD     10

 WEL PACKAGE (WEL-1) FLOW RATES   PERIOD     10   STEP        5
 -----------------------------------------------
   NUMBER   CELLID                    RATE      
 -----------------------------------------------
     1      (1,5,5)               0.0000000     
     2      (1,11,5)              0.0000000     
     3      (1,5,5)               0.0000000     
 -----------------------------------------------




 CHD PACKAGE (CHD-FROM-IBOUND) FLOW RATES   PERIOD     10   STEP        5
 -----------------------------------------------
   NUMBER   CELLID                    RATE      
 -----------------------------------------------
     1      (1,1,1)              -5295.8914     
     2      (1,1,2)              -5295.8881     
     3      (1,1,3)              -5295.8875     
     4      (1,1,4)              -5295.8890     
     5      (1,1,5)              -5295.8908     
     6      (1,1,6)              -5295.8926     
     7      (1,1,7)              -5295.8949     
     8      (1,1,8)              -5295.8980     
     9      (1,1,9)              -5295.9009     
     10     (1,21,1)             -5295.8989     
     11     (1,21,2)             -5295.8948     
     12     (1,21,3)             -5295.8912     
     13     (1,21,4)             -5295.8889     
     14     (1,21,5)             -5295.8869     
     15     (1,21,6)             -5295.8848     
     16     (1,21,7)             -5295.8839     
     17     (1,21,8)             -5295.8868     
     18     (1,21,9)             -5295.8933     
 -----------------------------------------------




 HEAD WILL BE SAVED ON UNIT 1016 AT END OF TIME STEP    5, STRESS PERIOD   10


  VOLUME BUDGET FOR ENTIRE MODEL AT END OF TIME STEP    5, STRESS PERIOD  10
  ---------------------------------------------------------------------------------------------------

     CUMULATIVE VOLUME      L**3       RATES FOR THIS TIME STEP      L**3/T          PACKAGE NAME    
     ------------------                 ------------------------                     ----------------

           IN:                                      IN:
           ---                                      ---
              STO-SS =     8927372.6485                STO-SS =       88396.0000     STORAGE                          
              STO-SY =      269807.8851                STO-SY =        2655.0429     STORAGE                          
                 WEL =           0.0000                   WEL =           0.0000     WEL-1                            
                RCHA =    32479786.7357                  RCHA =        4275.0000     RCH-1                            
                 CHD =           0.0000                   CHD =           0.0000     CHD-FROM-IBOUND                  

            TOTAL IN =    41676967.2694              TOTAL IN =       95326.0429

          OUT:                                     OUT:
          ----                                     ----
              STO-SS =    16442562.6098                STO-SS =           0.0000     STORAGE                          
              STO-SY =      491261.5239                STO-SY =           0.0000     STORAGE                          
                 WEL =           0.0000                   WEL =           0.0000     WEL-1                            
                RCHA =           0.0000                  RCHA =           0.0000     RCH-1                            
                 CHD =    24743144.8971                   CHD =       95326.0427     CHD-FROM-IBOUND                  

           TOTAL OUT =    41676969.0308             TOTAL OUT =       95326.0427

            IN - OUT =          -1.7614              IN - OUT =       1.7634E-04

 PERCENT DISCREPANCY =          -0.00     PERCENT DISCREPANCY =           0.00




         TIME SUMMARY AT END OF TIME STEP    5 IN STRESS PERIOD   10
                    SECONDS     MINUTES      HOURS       DAYS        YEARS
                    -----------------------------------------------------------
   TIME STEP LENGTH 3.25762E+05  5429.4      90.489      3.7704     1.03228E-02
 STRESS PERIOD TIME 1.16907E+06  19485.      324.74      13.531     3.70457E-02
         TOTAL TIME 2.22507E+07 3.70845E+05  6180.7      257.53     0.70508    


end timestep


start timestep kper="10" kstp="6" mode="normal"

 UBDSV1 SAVING     FLOW-JA-FACE ON UNIT   1015 AT TIME STEP      6, STRESS PERIOD     10
 UBDSV06 SAVING              WEL IN MODEL MUMODEL          PACKAGE MUMODEL         CONNECTED TO MODEL MUMODEL          PACKAGE WEL-1            ON UNIT   1015 AT TIME STEP      6, STRESS PERIOD     10
 UBDSV06 SAVING             RCHA IN MODEL MUMODEL          PACKAGE MUMODEL         CONNECTED TO MODEL MUMODEL          PACKAGE RCH-1            ON UNIT   1015 AT TIME STEP      6, STRESS PERIOD     10

 WEL PACKAGE (WEL-1) FLOW RATES   PERIOD     10   STEP        6
 -----------------------------------------------
   NUMBER   CELLID                    RATE      
 -----------------------------------------------
     1      (1,5,5)               0.0000000     
     2      (1,11,5)              0.0000000     
     3      (1,5,5)               0.0000000     
 -----------------------------------------------




 CHD PACKAGE (CHD-FROM-IBOUND) FLOW RATES   PERIOD     10   STEP        6
 -----------------------------------------------
   NUMBER   CELLID                    RATE      
 -----------------------------------------------
     1      (1,1,1)              -5291.3113     
     2      (1,1,2)              -5291.3081     
     3      (1,1,3)              -5291.3074     
     4      (1,1,4)              -5291.3089     
     5      (1,1,5)              -5291.3107     
     6      (1,1,6)              -5291.3125     
     7      (1,1,7)              -5291.3147     
     8      (1,1,8)              -5291.3178     
     9      (1,1,9)              -5291.3208     
     10     (1,21,1)             -5291.3187     
     11     (1,21,2)             -5291.3147     
     12     (1,21,3)             -5291.3111     
     13     (1,21,4)             -5291.3088     
     14     (1,21,5)             -5291.3068     
     15     (1,21,6)             -5291.3047     
     16     (1,21,7)             -5291.3038     
     17     (1,21,8)             -5291.3068     
     18     (1,21,9)             -5291.3132     
 -----------------------------------------------




 HEAD WILL BE SAVED ON UNIT 1016 AT END OF TIME STEP    6, STRESS PERIOD   10


  VOLUME BUDGET FOR ENTIRE MODEL AT END OF TIME STEP    6, STRESS PERIOD  10
  ---------------------------------------------------------------------------------------------------

     CUMULATIVE VOLUME      L**3       RATES FOR THIS TIME STEP      L**3/T          PACKAGE NAME    
     ------------------                 ------------------------                     ----------------

           IN:                                      IN:
           ---                                      ---
              STO-SS =     9326958.1087                STO-SS =       88316.5401     STORAGE                          
              STO-SY =      281807.0536                STO-SY =        2652.0611     STORAGE                          
                 WEL =           0.0000                   WEL =           0.0000     WEL-1                            
                RCHA =    32499128.8413                  RCHA =        4275.0000     RCH-1                            
                 CHD =           0.0000                   CHD =           0.0000     CHD-FROM-IBOUND                  

            TOTAL IN =    42107894.0036              TOTAL IN =       95243.6012

          OUT:                                     OUT:
          ----                                     ----
              STO-SS =    16442562.6098                STO-SS =           0.0000     STORAGE                          
              STO-SY =      491261.5239                STO-SY =           0.0000     STORAGE                          
                 WEL =           0.0000                   WEL =           0.0000     WEL-1                            
                RCHA =           0.0000                  RCHA =           0.0000     RCH-1                            
                 CHD =    25174071.6300                   CHD =       95243.6009     CHD-FROM-IBOUND                  

           TOTAL OUT =    42107895.7637             TOTAL OUT =       95243.6009

            IN - OUT =          -1.7601              IN - OUT =       2.9109E-04

 PERCENT DISCREPANCY =          -0.00     PERCENT DISCREPANCY =           0.00




         TIME SUMMARY AT END OF TIME STEP    6 IN STRESS PERIOD   10
                    SECONDS     MINUTES      HOURS       DAYS        YEARS
                    -----------------------------------------------------------
   TIME STEP LENGTH 3.90914E+05  6515.2      108.59      4.5245     1.23873E-02
 STRESS PERIOD TIME 1.55999E+06  26000.      433.33      18.055     4.94330E-02
         TOTAL TIME 2.26416E+07 3.77360E+05  6289.3      262.06     0.71747    


end timestep


start timestep kper="10" kstp="7" mode="normal"

 UBDSV1 SAVING     FLOW-JA-FACE ON UNIT   1015 AT TIME STEP      7, STRESS PERIOD     10
 UBDSV06 SAVING              WEL IN MODEL MUMODEL          PACKAGE MUMODEL         CONNECTED TO MODEL MUMODEL          PACKAGE WEL-1            ON UNIT   1015 AT TIME STEP      7, STRESS PERIOD     10
 UBDSV06 SAVING             RCHA IN MODEL MUMODEL          PACKAGE MUMODEL         CONNECTED TO MODEL MUMODEL          PACKAGE RCH-1            ON UNIT   1015 AT TIME STEP      7, STRESS PERIOD     10

 WEL PACKAGE (WEL-1) FLOW RATES   PERIOD     10   STEP        7
 -----------------------------------------------
   NUMBER   CELLID                    RATE      
 -----------------------------------------------
     1      (1,5,5)               0.0000000     
     2      (1,11,5)              0.0000000     
     3      (1,5,5)               0.0000000     
 -----------------------------------------------




 CHD PACKAGE (CHD-FROM-IBOUND) FLOW RATES   PERIOD     10   STEP        7
 -----------------------------------------------
   NUMBER   CELLID                    RATE      
 -----------------------------------------------
     1      (1,1,1)              -5285.8682     
     2      (1,1,2)              -5285.8650     
     3      (1,1,3)              -5285.8644     
     4      (1,1,4)              -5285.8658     
     5      (1,1,5)              -5285.8676     
     6      (1,1,6)              -5285.8694     
     7      (1,1,7)              -5285.8716     
     8      (1,1,8)              -5285.8747     
     9      (1,1,9)              -5285.8776     
     10     (1,21,1)             -5285.8755     
     11     (1,21,2)             -5285.8715     
     12     (1,21,3)             -5285.8680     
     13     (1,21,4)             -5285.8657     
     14     (1,21,5)             -5285.8637     
     15     (1,21,6)             -5285.8617     
     16     (1,21,7)             -5285.8608     
     17     (1,21,8)             -5285.8638     
     18     (1,21,9)             -5285.8701     
 -----------------------------------------------




 HEAD WILL BE SAVED ON UNIT 1016 AT END OF TIME STEP    7, STRESS PERIOD   10


  VOLUME BUDGET FOR ENTIRE MODEL AT END OF TIME STEP    7, STRESS PERIOD  10
  ---------------------------------------------------------------------------------------------------

     CUMULATIVE VOLUME      L**3       RATES FOR THIS TIME STEP      L**3/T          PACKAGE NAME    
     ------------------                 ------------------------                     ----------------

           IN:                                      IN:
           ---                                      ---
              STO-SS =     9805947.9264                STO-SS =       88222.1028     STORAGE                          
              STO-SY =      296186.8450                STO-SY =        2648.5228     STORAGE                          
                 WEL =           0.0000                   WEL =           0.0000     WEL-1                            
                RCHA =    32522339.3680                  RCHA =        4275.0000     RCH-1                            
                 CHD =           0.0000                   CHD =           0.0000     CHD-FROM-IBOUND                  

            TOTAL IN =    42624474.1394              TOTAL IN =       95145.6256

          OUT:                                     OUT:
          ----                                     ----
              STO-SS =    16442562.6098                STO-SS =           0.0000     STORAGE                          
              STO-SY =      491261.5239                STO-SY =           0.0000     STORAGE                          
                 WEL =           0.0000                   WEL =           0.0000     WEL-1                            
                RCHA =           0.0000                  RCHA =           0.0000     RCH-1                            
                 CHD =    25690651.7632                   CHD =       95145.6251     CHD-FROM-IBOUND                  

           TOTAL OUT =    42624475.8969             TOTAL OUT =       95145.6251

            IN - OUT =          -1.7574              IN - OUT =       4.8532E-04

 PERCENT DISCREPANCY =          -0.00     PERCENT DISCREPANCY =           0.00




         TIME SUMMARY AT END OF TIME STEP    7 IN STRESS PERIOD   10
                    SECONDS     MINUTES      HOURS       DAYS        YEARS
                    -----------------------------------------------------------
   TIME STEP LENGTH 4.69097E+05  7818.3      130.30      5.4294     1.48648E-02
 STRESS PERIOD TIME 2.02908E+06  33818.      563.63      23.485     6.42978E-02
         TOTAL TIME 2.31107E+07 3.85178E+05  6419.6      267.48     0.73233    


end timestep


start timestep kper="10" kstp="8" mode="normal"

 UBDSV1 SAVING     FLOW-JA-FACE ON UNIT   1015 AT TIME STEP      8, STRESS PERIOD     10
 UBDSV06 SAVING              WEL IN MODEL MUMODEL          PACKAGE MUMODEL         CONNECTED TO MODEL MUMODEL          PACKAGE WEL-1            ON UNIT   1015 AT TIME STEP      8, STRESS PERIOD     10
 UBDSV06 SAVING             RCHA IN MODEL MUMODEL          PACKAGE MUMODEL         CONNECTED TO MODEL MUMODEL          PACKAGE RCH-1            ON UNIT   1015 AT TIME STEP      8, STRESS PERIOD     10

 WEL PACKAGE (WEL-1) FLOW RATES   PERIOD     10   STEP        8
 -----------------------------------------------
   NUMBER   CELLID                    RATE      
 -----------------------------------------------
     1      (1,5,5)               0.0000000     
     2      (1,11,5)              0.0000000     
     3      (1,5,5)               0.0000000     
 -----------------------------------------------




 CHD PACKAGE (CHD-FROM-IBOUND) FLOW RATES   PERIOD     10   STEP        8
 -----------------------------------------------
   NUMBER   CELLID                    RATE      
 -----------------------------------------------
     1      (1,1,1)              -5279.4111     
     2      (1,1,2)              -5279.4080     
     3      (1,1,3)              -5279.4073     
     4      (1,1,4)              -5279.4087     
     5      (1,1,5)              -5279.4105     
     6      (1,1,6)              -5279.4123     
     7      (1,1,7)              -5279.4145     
     8      (1,1,8)              -5279.4175     
     9      (1,1,9)              -5279.4204     
     10     (1,21,1)             -5279.4182     
     11     (1,21,2)             -5279.4143     
     12     (1,21,3)             -5279.4108     
     13     (1,21,4)             -5279.4086     
     14     (1,21,5)             -5279.4066     
     15     (1,21,6)             -5279.4046     
     16     (1,21,7)             -5279.4038     
     17     (1,21,8)             -5279.4068     
     18     (1,21,9)             -5279.4130     
 -----------------------------------------------




 HEAD WILL BE SAVED ON UNIT 1016 AT END OF TIME STEP    8, STRESS PERIOD   10


  VOLUME BUDGET FOR ENTIRE MODEL AT END OF TIME STEP    8, STRESS PERIOD  10
  ---------------------------------------------------------------------------------------------------

     CUMULATIVE VOLUME      L**3       RATES FOR THIS TIME STEP      L**3/T          PACKAGE NAME    
     ------------------                 ------------------------                     ----------------

           IN:                                      IN:
           ---                                      ---
              STO-SS =    10380005.7540                STO-SS =       88110.0648     STORAGE                          
              STO-SY =      313415.2971                STO-SY =        2644.3330     STORAGE                          
                 WEL =           0.0000                   WEL =           0.0000     WEL-1                            
                RCHA =    32550192.0000                  RCHA =        4275.0000     RCH-1                            
                 CHD =           0.0000                   CHD =           0.0000     CHD-FROM-IBOUND                  

            TOTAL IN =    43243613.0512              TOTAL IN =       95029.3978

          OUT:                                     OUT:
          ----                                     ----
              STO-SS =    16442562.6098                STO-SS =           0.0000     STORAGE                          
              STO-SY =      491261.5239                STO-SY =           0.0000     STORAGE                          
                 WEL =           0.0000                   WEL =           0.0000     WEL-1                            
                RCHA =           0.0000                  RCHA =           0.0000     RCH-1                            
                 CHD =    26309790.6697                   CHD =       95029.3970     CHD-FROM-IBOUND                  

           TOTAL OUT =    43243614.8034             TOTAL OUT =       95029.3970

            IN - OUT =          -1.7522              IN - OUT =       7.9917E-04

 PERCENT DISCREPANCY =          -0.00     PERCENT DISCREPANCY =           0.00




         TIME SUMMARY AT END OF TIME STEP    8 IN STRESS PERIOD   10
                    SECONDS     MINUTES      HOURS       DAYS        YEARS
                    -----------------------------------------------------------
   TIME STEP LENGTH 5.62916E+05  9381.9      156.37      6.5152     1.78377E-02
 STRESS PERIOD TIME 2.59200E+06  43200.      720.00      30.000     8.21355E-02
         TOTAL TIME 2.36736E+07 3.94560E+05  6576.0      274.00     0.75017    


end timestep


start timestep kper="11" kstp="1" mode="normal"


 OUTPUT CONTROL FOR STRESS PERIOD 11 IS REPEATED USING SETTINGS FROM A PREVIOUS STRESS PERIOD.


 STRESS PERIOD 11 IS TRANSIENT


 REUSING WELS FROM LAST STRESS PERIOD

 REUSING RCHS FROM LAST STRESS PERIOD

 REUSING CHDS FROM LAST STRESS PERIOD
 UBDSV1 SAVING     FLOW-JA-FACE ON UNIT   1015 AT TIME STEP      1, STRESS PERIOD     11
 UBDSV06 SAVING              WEL IN MODEL MUMODEL          PACKAGE MUMODEL         CONNECTED TO MODEL MUMODEL          PACKAGE WEL-1            ON UNIT   1015 AT TIME STEP      1, STRESS PERIOD     11
 UBDSV06 SAVING             RCHA IN MODEL MUMODEL          PACKAGE MUMODEL         CONNECTED TO MODEL MUMODEL          PACKAGE RCH-1            ON UNIT   1015 AT TIME STEP      1, STRESS PERIOD     11

 WEL PACKAGE (WEL-1) FLOW RATES   PERIOD     11   STEP        1
 -----------------------------------------------
   NUMBER   CELLID                    RATE      
 -----------------------------------------------
     1      (1,5,5)               0.0000000     
     2      (1,11,5)              0.0000000     
     3      (1,5,5)               0.0000000     
 -----------------------------------------------




 CHD PACKAGE (CHD-FROM-IBOUND) FLOW RATES   PERIOD     11   STEP        1
 -----------------------------------------------
   NUMBER   CELLID                    RATE      
 -----------------------------------------------
     1      (1,1,1)              -5277.5546     
     2      (1,1,2)              -5277.5516     
     3      (1,1,3)              -5277.5509     
     4      (1,1,4)              -5277.5523     
     5      (1,1,5)              -5277.5540     
     6      (1,1,6)              -5277.5558     
     7      (1,1,7)              -5277.5580     
     8      (1,1,8)              -5277.5610     
     9      (1,1,9)              -5277.5639     
     10     (1,21,1)             -5277.5617     
     11     (1,21,2)             -5277.5579     
     12     (1,21,3)             -5277.5544     
     13     (1,21,4)             -5277.5521     
     14     (1,21,5)             -5277.5502     
     15     (1,21,6)             -5277.5482     
     16     (1,21,7)             -5277.5474     
     17     (1,21,8)             -5277.5504     
     18     (1,21,9)             -5277.5566     
 -----------------------------------------------




 HEAD WILL BE SAVED ON UNIT 1016 AT END OF TIME STEP    1, STRESS PERIOD   11


  VOLUME BUDGET FOR ENTIRE MODEL AT END OF TIME STEP    1, STRESS PERIOD  11
  ---------------------------------------------------------------------------------------------------

     CUMULATIVE VOLUME      L**3       RATES FOR THIS TIME STEP      L**3/T          PACKAGE NAME    
     ------------------                 ------------------------                     ----------------

           IN:                                      IN:
           ---                                      ---
              STO-SS =    10545494.2966                STO-SS =       88077.7257     STORAGE                          
              STO-SY =      318381.6886                STO-SY =        2643.2553     STORAGE                          
                 WEL =           0.0000                   WEL =           0.0000     WEL-1                            
                RCHA =    32558224.2637                  RCHA =        4275.0000     RCH-1                            
                 CHD =           0.0000                   CHD =           0.0000     CHD-FROM-IBOUND                  

            TOTAL IN =    43422100.2489              TOTAL IN =       94995.9810

          OUT:                                     OUT:
          ----                                     ----
              STO-SS =    16442562.6098                STO-SS =           0.0000     STORAGE                          
              STO-SY =      491261.5239                STO-SY =           0.0000     STORAGE                          
                 WEL =           0.0000                   WEL =           0.0000     WEL-1                            
                RCHA =           0.0000                  RCHA =           0.0000     RCH-1                            
                 CHD =    26488277.8674                   CHD =       94995.9810     CHD-FROM-IBOUND                  

           TOTAL OUT =    43422102.0011             TOTAL OUT =       94995.9810

            IN - OUT =          -1.7522              IN - OUT =       2.2005E-05

 PERCENT DISCREPANCY =          -0.00     PERCENT DISCREPANCY =           0.00




         TIME SUMMARY AT END OF TIME STEP    1 IN STRESS PERIOD   11
                    SECONDS     MINUTES      HOURS       DAYS        YEARS
                    -----------------------------------------------------------
   TIME STEP LENGTH 1.62336E+05  2705.6      45.093      1.8789     5.14413E-03
 STRESS PERIOD TIME 1.62336E+05  2705.6      45.093      1.8789     5.14413E-03
         TOTAL TIME 2.38359E+07 3.97266E+05  6621.1      275.88     0.75532    


end timestep


start timestep kper="11" kstp="2" mode="normal"

 UBDSV1 SAVING     FLOW-JA-FACE ON UNIT   1015 AT TIME STEP      2, STRESS PERIOD     11
 UBDSV06 SAVING              WEL IN MODEL MUMODEL          PACKAGE MUMODEL         CONNECTED TO MODEL MUMODEL          PACKAGE WEL-1            ON UNIT   1015 AT TIME STEP      2, STRESS PERIOD     11
 UBDSV06 SAVING             RCHA IN MODEL MUMODEL          PACKAGE MUMODEL         CONNECTED TO MODEL MUMODEL          PACKAGE RCH-1            ON UNIT   1015 AT TIME STEP      2, STRESS PERIOD     11

 WEL PACKAGE (WEL-1) FLOW RATES   PERIOD     11   STEP        2
 -----------------------------------------------
   NUMBER   CELLID                    RATE      
 -----------------------------------------------
     1      (1,5,5)               0.0000000     
     2      (1,11,5)              0.0000000     
     3      (1,5,5)               0.0000000     
 -----------------------------------------------




 CHD PACKAGE (CHD-FROM-IBOUND) FLOW RATES   PERIOD     11   STEP        2
 -----------------------------------------------
   NUMBER   CELLID                    RATE      
 -----------------------------------------------
     1      (1,1,1)              -5275.3362     
     2      (1,1,2)              -5275.3332     
     3      (1,1,3)              -5275.3325     
     4      (1,1,4)              -5275.3338     
     5      (1,1,5)              -5275.3356     
     6      (1,1,6)              -5275.3374     
     7      (1,1,7)              -5275.3396     
     8      (1,1,8)              -5275.3426     
     9      (1,1,9)              -5275.3454     
     10     (1,21,1)             -5275.3433     
     11     (1,21,2)             -5275.3394     
     12     (1,21,3)             -5275.3359     
     13     (1,21,4)             -5275.3337     
     14     (1,21,5)             -5275.3318     
     15     (1,21,6)             -5275.3298     
     16     (1,21,7)             -5275.3290     
     17     (1,21,8)             -5275.3320     
     18     (1,21,9)             -5275.3381     
 -----------------------------------------------




 HEAD WILL BE SAVED ON UNIT 1016 AT END OF TIME STEP    2, STRESS PERIOD   11


  VOLUME BUDGET FOR ENTIRE MODEL AT END OF TIME STEP    2, STRESS PERIOD  11
  ---------------------------------------------------------------------------------------------------

     CUMULATIVE VOLUME      L**3       RATES FOR THIS TIME STEP      L**3/T          PACKAGE NAME    
     ------------------                 ------------------------                     ----------------

           IN:                                      IN:
           ---                                      ---
              STO-SS =    10743993.7574                STO-SS =       88039.2322     STORAGE                          
              STO-SY =      324338.1157                STO-SY =        2641.8171     STORAGE                          
                 WEL =           0.0000                   WEL =           0.0000     WEL-1                            
                RCHA =    32567862.9802                  RCHA =        4275.0000     RCH-1                            
                 CHD =           0.0000                   CHD =           0.0000     CHD-FROM-IBOUND                  

            TOTAL IN =    43636194.8533              TOTAL IN =       94956.0493

          OUT:                                     OUT:
          ----                                     ----
              STO-SS =    16442562.6098                STO-SS =           0.0000     STORAGE                          
              STO-SY =      491261.5239                STO-SY =           0.0000     STORAGE                          
                 WEL =           0.0000                   WEL =           0.0000     WEL-1                            
                RCHA =           0.0000                  RCHA =           0.0000     RCH-1                            
                 CHD =    26702372.4717                   CHD =       94956.0492     CHD-FROM-IBOUND                  

           TOTAL OUT =    43636196.6054             TOTAL OUT =       94956.0492

            IN - OUT =          -1.7521              IN - OUT =       3.0827E-05

 PERCENT DISCREPANCY =          -0.00     PERCENT DISCREPANCY =           0.00




         TIME SUMMARY AT END OF TIME STEP    2 IN STRESS PERIOD   11
                    SECONDS     MINUTES      HOURS       DAYS        YEARS
                    -----------------------------------------------------------
   TIME STEP LENGTH 1.94804E+05  3246.7      54.112      2.2547     6.17295E-03
 STRESS PERIOD TIME 3.57140E+05  5952.3      99.206      4.1336     1.13171E-02
         TOTAL TIME 2.40307E+07 4.00512E+05  6675.2      278.13     0.76149    


end timestep


start timestep kper="11" kstp="3" mode="normal"

 UBDSV1 SAVING     FLOW-JA-FACE ON UNIT   1015 AT TIME STEP      3, STRESS PERIOD     11
 UBDSV06 SAVING              WEL IN MODEL MUMODEL          PACKAGE MUMODEL         CONNECTED TO MODEL MUMODEL          PACKAGE WEL-1            ON UNIT   1015 AT TIME STEP      3, STRESS PERIOD     11
 UBDSV06 SAVING             RCHA IN MODEL MUMODEL          PACKAGE MUMODEL         CONNECTED TO MODEL MUMODEL          PACKAGE RCH-1            ON UNIT   1015 AT TIME STEP      3, STRESS PERIOD     11

 WEL PACKAGE (WEL-1) FLOW RATES   PERIOD     11   STEP        3
 -----------------------------------------------
   NUMBER   CELLID                    RATE      
 -----------------------------------------------
     1      (1,5,5)               0.0000000     
     2      (1,11,5)              0.0000000     
     3      (1,5,5)               0.0000000     
 -----------------------------------------------




 CHD PACKAGE (CHD-FROM-IBOUND) FLOW RATES   PERIOD     11   STEP        3
 -----------------------------------------------
   NUMBER   CELLID                    RATE      
 -----------------------------------------------
     1      (1,1,1)              -5272.6866     
     2      (1,1,2)              -5272.6836     
     3      (1,1,3)              -5272.6830     
     4      (1,1,4)              -5272.6843     
     5      (1,1,5)              -5272.6860     
     6      (1,1,6)              -5272.6878     
     7      (1,1,7)              -5272.6900     
     8      (1,1,8)              -5272.6930     
     9      (1,1,9)              -5272.6958     
     10     (1,21,1)             -5272.6936     
     11     (1,21,2)             -5272.6898     
     12     (1,21,3)             -5272.6864     
     13     (1,21,4)             -5272.6841     
     14     (1,21,5)             -5272.6822     
     15     (1,21,6)             -5272.6802     
     16     (1,21,7)             -5272.6795     
     17     (1,21,8)             -5272.6825     
     18     (1,21,9)             -5272.6886     
 -----------------------------------------------




 HEAD WILL BE SAVED ON UNIT 1016 AT END OF TIME STEP    3, STRESS PERIOD   11


  VOLUME BUDGET FOR ENTIRE MODEL AT END OF TIME STEP    3, STRESS PERIOD  11
  ---------------------------------------------------------------------------------------------------

     CUMULATIVE VOLUME      L**3       RATES FOR THIS TIME STEP      L**3/T          PACKAGE NAME    
     ------------------                 ------------------------                     ----------------

           IN:                                      IN:
           ---                                      ---
              STO-SS =    10982068.7184                STO-SS =       87993.2565     STORAGE                          
              STO-SY =      331481.1843                STO-SY =        2640.1007     STORAGE                          
                 WEL =           0.0000                   WEL =           0.0000     WEL-1                            
                RCHA =    32579429.4399                  RCHA =        4275.0000     RCH-1                            
                 CHD =           0.0000                   CHD =           0.0000     CHD-FROM-IBOUND                  

            TOTAL IN =    43892979.3426              TOTAL IN =       94908.3572

          OUT:                                     OUT:
          ----                                     ----
              STO-SS =    16442562.6098                STO-SS =           0.0000     STORAGE                          
              STO-SY =      491261.5239                STO-SY =           0.0000     STORAGE                          
                 WEL =           0.0000                   WEL =           0.0000     WEL-1                            
                RCHA =           0.0000                  RCHA =           0.0000     RCH-1                            
                 CHD =    26959156.9610                   CHD =       94908.3571     CHD-FROM-IBOUND                  

           TOTAL OUT =    43892981.0946             TOTAL OUT =       94908.3571

            IN - OUT =          -1.7520              IN - OUT =       5.5651E-05

 PERCENT DISCREPANCY =          -0.00     PERCENT DISCREPANCY =           0.00




         TIME SUMMARY AT END OF TIME STEP    3 IN STRESS PERIOD   11
                    SECONDS     MINUTES      HOURS       DAYS        YEARS
                    -----------------------------------------------------------
   TIME STEP LENGTH 2.33764E+05  3896.1      64.935      2.7056     7.40754E-03
 STRESS PERIOD TIME 5.90904E+05  9848.4      164.14      6.8392     1.87246E-02
         TOTAL TIME 2.42645E+07 4.04408E+05  6740.1      280.84     0.76890    


end timestep


start timestep kper="11" kstp="4" mode="normal"

 UBDSV1 SAVING     FLOW-JA-FACE ON UNIT   1015 AT TIME STEP      4, STRESS PERIOD     11
 UBDSV06 SAVING              WEL IN MODEL MUMODEL          PACKAGE MUMODEL         CONNECTED TO MODEL MUMODEL          PACKAGE WEL-1            ON UNIT   1015 AT TIME STEP      4, STRESS PERIOD     11
 UBDSV06 SAVING             RCHA IN MODEL MUMODEL          PACKAGE MUMODEL         CONNECTED TO MODEL MUMODEL          PACKAGE RCH-1            ON UNIT   1015 AT TIME STEP      4, STRESS PERIOD     11

 WEL PACKAGE (WEL-1) FLOW RATES   PERIOD     11   STEP        4
 -----------------------------------------------
   NUMBER   CELLID                    RATE      
 -----------------------------------------------
     1      (1,5,5)               0.0000000     
     2      (1,11,5)              0.0000000     
     3      (1,5,5)               0.0000000     
 -----------------------------------------------




 CHD PACKAGE (CHD-FROM-IBOUND) FLOW RATES   PERIOD     11   STEP        4
 -----------------------------------------------
   NUMBER   CELLID                    RATE      
 -----------------------------------------------
     1      (1,1,1)              -5269.5250     
     2      (1,1,2)              -5269.5221     
     3      (1,1,3)              -5269.5214     
     4      (1,1,4)              -5269.5227     
     5      (1,1,5)              -5269.5244     
     6      (1,1,6)              -5269.5262     
     7      (1,1,7)              -5269.5284     
     8      (1,1,8)              -5269.5314     
     9      (1,1,9)              -5269.5342     
     10     (1,21,1)             -5269.5320     
     11     (1,21,2)             -5269.5282     
     12     (1,21,3)             -5269.5248     
     13     (1,21,4)             -5269.5225     
     14     (1,21,5)             -5269.5206     
     15     (1,21,6)             -5269.5187     
     16     (1,21,7)             -5269.5180     
     17     (1,21,8)             -5269.5209     
     18     (1,21,9)             -5269.5270     
 -----------------------------------------------




 HEAD WILL BE SAVED ON UNIT 1016 AT END OF TIME STEP    4, STRESS PERIOD   11


  VOLUME BUDGET FOR ENTIRE MODEL AT END OF TIME STEP    4, STRESS PERIOD  11
  ---------------------------------------------------------------------------------------------------

     CUMULATIVE VOLUME      L**3       RATES FOR THIS TIME STEP      L**3/T          PACKAGE NAME    
     ------------------                 ------------------------                     ----------------

           IN:                                      IN:
           ---                                      ---
              STO-SS =    11267580.5485                STO-SS =       87938.3941     STORAGE                          
              STO-SY =      340046.2230                STO-SY =        2638.0544     STORAGE                          
                 WEL =           0.0000                   WEL =           0.0000     WEL-1                            
                RCHA =    32593309.1916                  RCHA =        4275.0000     RCH-1                            
                 CHD =           0.0000                   CHD =           0.0000     CHD-FROM-IBOUND                  

            TOTAL IN =    44200935.9631              TOTAL IN =       94851.4485

          OUT:                                     OUT:
          ----                                     ----
              STO-SS =    16442562.6098                STO-SS =           0.0000     STORAGE                          
              STO-SY =      491261.5239                STO-SY =           0.0000     STORAGE                          
                 WEL =           0.0000                   WEL =           0.0000     WEL-1                            
                RCHA =           0.0000                  RCHA =           0.0000     RCH-1                            
                 CHD =    27267113.5811                   CHD =       94851.4484     CHD-FROM-IBOUND                  

           TOTAL OUT =    44200937.7147             TOTAL OUT =       94851.4484

            IN - OUT =          -1.7517              IN - OUT =       9.9348E-05

 PERCENT DISCREPANCY =          -0.00     PERCENT DISCREPANCY =           0.00




         TIME SUMMARY AT END OF TIME STEP    4 IN STRESS PERIOD   11
                    SECONDS     MINUTES      HOURS       DAYS        YEARS
                    -----------------------------------------------------------
   TIME STEP LENGTH 2.80517E+05  4675.3      77.921      3.2467     8.88905E-03
 STRESS PERIOD TIME 8.71421E+05  14524.      242.06      10.086     2.76137E-02
         TOTAL TIME 2.45450E+07 4.09084E+05  6818.1      284.09     0.77778    


end timestep


start timestep kper="11" kstp="5" mode="normal"

 UBDSV1 SAVING     FLOW-JA-FACE ON UNIT   1015 AT TIME STEP      5, STRESS PERIOD     11
 UBDSV06 SAVING              WEL IN MODEL MUMODEL          PACKAGE MUMODEL         CONNECTED TO MODEL MUMODEL          PACKAGE WEL-1            ON UNIT   1015 AT TIME STEP      5, STRESS PERIOD     11
 UBDSV06 SAVING             RCHA IN MODEL MUMODEL          PACKAGE MUMODEL         CONNECTED TO MODEL MUMODEL          PACKAGE RCH-1            ON UNIT   1015 AT TIME STEP      5, STRESS PERIOD     11

 WEL PACKAGE (WEL-1) FLOW RATES   PERIOD     11   STEP        5
 -----------------------------------------------
   NUMBER   CELLID                    RATE      
 -----------------------------------------------
     1      (1,5,5)               0.0000000     
     2      (1,11,5)              0.0000000     
     3      (1,5,5)               0.0000000     
 -----------------------------------------------




 CHD PACKAGE (CHD-FROM-IBOUND) FLOW RATES   PERIOD     11   STEP        5
 -----------------------------------------------
   NUMBER   CELLID                    RATE      
 -----------------------------------------------
     1      (1,1,1)              -5265.7565     
     2      (1,1,2)              -5265.7536     
     3      (1,1,3)              -5265.7529     
     4      (1,1,4)              -5265.7542     
     5      (1,1,5)              -5265.7559     
     6      (1,1,6)              -5265.7577     
     7      (1,1,7)              -5265.7598     
     8      (1,1,8)              -5265.7628     
     9      (1,1,9)              -5265.7656     
     10     (1,21,1)             -5265.7634     
     11     (1,21,2)             -5265.7596     
     12     (1,21,3)             -5265.7562     
     13     (1,21,4)             -5265.7540     
     14     (1,21,5)             -5265.7521     
     15     (1,21,6)             -5265.7502     
     16     (1,21,7)             -5265.7495     
     17     (1,21,8)             -5265.7525     
     18     (1,21,9)             -5265.7584     
 -----------------------------------------------




 HEAD WILL BE SAVED ON UNIT 1016 AT END OF TIME STEP    5, STRESS PERIOD   11


  VOLUME BUDGET FOR ENTIRE MODEL AT END OF TIME STEP    5, STRESS PERIOD  11
  ---------------------------------------------------------------------------------------------------

     CUMULATIVE VOLUME      L**3       RATES FOR THIS TIME STEP      L**3/T          PACKAGE NAME    
     ------------------                 ------------------------                     ----------------

           IN:                                      IN:
           ---                                      ---
              STO-SS =    11609939.9534                STO-SS =       87872.9971     STORAGE                          
              STO-SY =      350314.7772                STO-SY =        2635.6180     STORAGE                          
                 WEL =           0.0000                   WEL =           0.0000     WEL-1                            
                RCHA =    32609964.8936                  RCHA =        4275.0000     RCH-1                            
                 CHD =           0.0000                   CHD =           0.0000     CHD-FROM-IBOUND                  

            TOTAL IN =    44570219.6241              TOTAL IN =       94783.6152

          OUT:                                     OUT:
          ----                                     ----
              STO-SS =    16442562.6098                STO-SS =           0.0000     STORAGE                          
              STO-SY =      491261.5239                STO-SY =           0.0000     STORAGE                          
                 WEL =           0.0000                   WEL =           0.0000     WEL-1                            
                RCHA =           0.0000                  RCHA =           0.0000     RCH-1                            
                 CHD =    27636397.2414                   CHD =       94783.6150     CHD-FROM-IBOUND                  

           TOTAL OUT =    44570221.3751             TOTAL OUT =       94783.6150

            IN - OUT =          -1.7510              IN - OUT =       1.6531E-04

 PERCENT DISCREPANCY =          -0.00     PERCENT DISCREPANCY =           0.00




         TIME SUMMARY AT END OF TIME STEP    5 IN STRESS PERIOD   11
                    SECONDS     MINUTES      HOURS       DAYS        YEARS
                    -----------------------------------------------------------
   TIME STEP LENGTH 3.36621E+05  5610.3      93.506      3.8961     1.06669E-02
 STRESS PERIOD TIME 1.20804E+06  20134.      335.57      13.982     3.82805E-02
         TOTAL TIME 2.48816E+07 4.14694E+05  6911.6      287.98     0.78845    


end timestep


start timestep kper="11" kstp="6" mode="normal"

 UBDSV1 SAVING     FLOW-JA-FACE ON UNIT   1015 AT TIME STEP      6, STRESS PERIOD     11
 UBDSV06 SAVING              WEL IN MODEL MUMODEL          PACKAGE MUMODEL         CONNECTED TO MODEL MUMODEL          PACKAGE WEL-1            ON UNIT   1015 AT TIME STEP      6, STRESS PERIOD     11
 UBDSV06 SAVING             RCHA IN MODEL MUMODEL          PACKAGE MUMODEL         CONNECTED TO MODEL MUMODEL          PACKAGE RCH-1            ON UNIT   1015 AT TIME STEP      6, STRESS PERIOD     11

 WEL PACKAGE (WEL-1) FLOW RATES   PERIOD     11   STEP        6
 -----------------------------------------------
   NUMBER   CELLID                    RATE      
 -----------------------------------------------
     1      (1,5,5)               0.0000000     
     2      (1,11,5)              0.0000000     
     3      (1,5,5)               0.0000000     
 -----------------------------------------------




 CHD PACKAGE (CHD-FROM-IBOUND) FLOW RATES   PERIOD     11   STEP        6
 -----------------------------------------------
   NUMBER   CELLID                    RATE      
 -----------------------------------------------
     1      (1,1,1)              -5261.2703     
     2      (1,1,2)              -5261.2674     
     3      (1,1,3)              -5261.2667     
     4      (1,1,4)              -5261.2679     
     5      (1,1,5)              -5261.2697     
     6      (1,1,6)              -5261.2714     
     7      (1,1,7)              -5261.2736     
     8      (1,1,8)              -5261.2765     
     9      (1,1,9)              -5261.2793     
     10     (1,21,1)             -5261.2770     
     11     (1,21,2)             -5261.2733     
     12     (1,21,3)             -5261.2699     
     13     (1,21,4)             -5261.2677     
     14     (1,21,5)             -5261.2658     
     15     (1,21,6)             -5261.2640     
     16     (1,21,7)             -5261.2633     
     17     (1,21,8)             -5261.2663     
     18     (1,21,9)             -5261.2722     
 -----------------------------------------------




 HEAD WILL BE SAVED ON UNIT 1016 AT END OF TIME STEP    6, STRESS PERIOD   11


  VOLUME BUDGET FOR ENTIRE MODEL AT END OF TIME STEP    6, STRESS PERIOD  11
  ---------------------------------------------------------------------------------------------------

     CUMULATIVE VOLUME      L**3       RATES FOR THIS TIME STEP      L**3/T          PACKAGE NAME    
     ------------------                 ------------------------                     ----------------

           IN:                                      IN:
           ---                                      ---
              STO-SS =    12020407.2408                STO-SS =       87795.1413     STORAGE                          
              STO-SY =      362623.4996                STO-SY =        2632.7214     STORAGE                          
                 WEL =           0.0000                   WEL =           0.0000     WEL-1                            
                RCHA =    32629951.7360                  RCHA =        4275.0000     RCH-1                            
                 CHD =           0.0000                   CHD =           0.0000     CHD-FROM-IBOUND                  

            TOTAL IN =    45012982.4764              TOTAL IN =       94702.8627

          OUT:                                     OUT:
          ----                                     ----
              STO-SS =    16442562.6098                STO-SS =           0.0000     STORAGE                          
              STO-SY =      491261.5239                STO-SY =           0.0000     STORAGE                          
                 WEL =           0.0000                   WEL =           0.0000     WEL-1                            
                RCHA =           0.0000                  RCHA =           0.0000     RCH-1                            
                 CHD =    28079160.0925                   CHD =       94702.8624     CHD-FROM-IBOUND                  

           TOTAL OUT =    45012984.2261             TOTAL OUT =       94702.8624

            IN - OUT =          -1.7497              IN - OUT =       2.7503E-04

 PERCENT DISCREPANCY =          -0.00     PERCENT DISCREPANCY =           0.00




         TIME SUMMARY AT END OF TIME STEP    6 IN STRESS PERIOD   11
                    SECONDS     MINUTES      HOURS       DAYS        YEARS
                    -----------------------------------------------------------
   TIME STEP LENGTH 4.03945E+05  6732.4      112.21      4.6753     1.28002E-02
 STRESS PERIOD TIME 1.61199E+06  26866.      447.77      18.657     5.10808E-02
         TOTAL TIME 2.52856E+07 4.21426E+05  7023.8      292.66     0.80125    


end timestep


start timestep kper="11" kstp="7" mode="normal"

 UBDSV1 SAVING     FLOW-JA-FACE ON UNIT   1015 AT TIME STEP      7, STRESS PERIOD     11
 UBDSV06 SAVING              WEL IN MODEL MUMODEL          PACKAGE MUMODEL         CONNECTED TO MODEL MUMODEL          PACKAGE WEL-1            ON UNIT   1015 AT TIME STEP      7, STRESS PERIOD     11
 UBDSV06 SAVING             RCHA IN MODEL MUMODEL          PACKAGE MUMODEL         CONNECTED TO MODEL MUMODEL          PACKAGE RCH-1            ON UNIT   1015 AT TIME STEP      7, STRESS PERIOD     11

 WEL PACKAGE (WEL-1) FLOW RATES   PERIOD     11   STEP        7
 -----------------------------------------------
   NUMBER   CELLID                    RATE      
 -----------------------------------------------
     1      (1,5,5)               0.0000000     
     2      (1,11,5)              0.0000000     
     3      (1,5,5)               0.0000000     
 -----------------------------------------------




 CHD PACKAGE (CHD-FROM-IBOUND) FLOW RATES   PERIOD     11   STEP        7
 -----------------------------------------------
   NUMBER   CELLID                    RATE      
 -----------------------------------------------
     1      (1,1,1)              -5255.9375     
     2      (1,1,2)              -5255.9347     
     3      (1,1,3)              -5255.9340     
     4      (1,1,4)              -5255.9353     
     5      (1,1,5)              -5255.9370     
     6      (1,1,6)              -5255.9387     
     7      (1,1,7)              -5255.9408     
     8      (1,1,8)              -5255.9438     
     9      (1,1,9)              -5255.9465     
     10     (1,21,1)             -5255.9442     
     11     (1,21,2)             -5255.9406     
     12     (1,21,3)             -5255.9372     
     13     (1,21,4)             -5255.9350     
     14     (1,21,5)             -5255.9331     
     15     (1,21,6)             -5255.9313     
     16     (1,21,7)             -5255.9307     
     17     (1,21,8)             -5255.9337     
     18     (1,21,9)             -5255.9395     
 -----------------------------------------------




 HEAD WILL BE SAVED ON UNIT 1016 AT END OF TIME STEP    7, STRESS PERIOD   11


  VOLUME BUDGET FOR ENTIRE MODEL AT END OF TIME STEP    7, STRESS PERIOD  11
  ---------------------------------------------------------------------------------------------------

     CUMULATIVE VOLUME      L**3       RATES FOR THIS TIME STEP      L**3/T          PACKAGE NAME    
     ------------------                 ------------------------                     ----------------

           IN:                                      IN:
           ---                                      ---
              STO-SS =    12512448.7440                STO-SS =       87702.5904     STORAGE                          
              STO-SY =      377374.6795                STO-SY =        2629.2837     STORAGE                          
                 WEL =           0.0000                   WEL =           0.0000     WEL-1                            
                RCHA =    32653935.9469                  RCHA =        4275.0000     RCH-1                            
                 CHD =           0.0000                   CHD =           0.0000     CHD-FROM-IBOUND                  

            TOTAL IN =    45543759.3704              TOTAL IN =       94606.8741

          OUT:                                     OUT:
          ----                                     ----
              STO-SS =    16442562.6098                STO-SS =           0.0000     STORAGE                          
              STO-SY =      491261.5239                STO-SY =           0.0000     STORAGE                          
                 WEL =           0.0000                   WEL =           0.0000     WEL-1                            
                RCHA =           0.0000                  RCHA =           0.0000     RCH-1                            
                 CHD =    28609936.9839                   CHD =       94606.8736     CHD-FROM-IBOUND                  

           TOTAL OUT =    45543761.1175             TOTAL OUT =       94606.8736

            IN - OUT =          -1.7472              IN - OUT =       4.5549E-04

 PERCENT DISCREPANCY =          -0.00     PERCENT DISCREPANCY =           0.00




         TIME SUMMARY AT END OF TIME STEP    7 IN STRESS PERIOD   11
                    SECONDS     MINUTES      HOURS       DAYS        YEARS
                    -----------------------------------------------------------
   TIME STEP LENGTH 4.84734E+05  8078.9      134.65      5.6103     1.53603E-02
 STRESS PERIOD TIME 2.09672E+06  34945.      582.42      24.268     6.64410E-02
         TOTAL TIME 2.57703E+07 4.29505E+05  7158.4      298.27     0.81661    


end timestep


start timestep kper="11" kstp="8" mode="normal"

 UBDSV1 SAVING     FLOW-JA-FACE ON UNIT   1015 AT TIME STEP      8, STRESS PERIOD     11
 UBDSV06 SAVING              WEL IN MODEL MUMODEL          PACKAGE MUMODEL         CONNECTED TO MODEL MUMODEL          PACKAGE WEL-1            ON UNIT   1015 AT TIME STEP      8, STRESS PERIOD     11
 UBDSV06 SAVING             RCHA IN MODEL MUMODEL          PACKAGE MUMODEL         CONNECTED TO MODEL MUMODEL          PACKAGE RCH-1            ON UNIT   1015 AT TIME STEP      8, STRESS PERIOD     11

 WEL PACKAGE (WEL-1) FLOW RATES   PERIOD     11   STEP        8
 -----------------------------------------------
   NUMBER   CELLID                    RATE      
 -----------------------------------------------
     1      (1,5,5)               0.0000000     
     2      (1,11,5)              0.0000000     
     3      (1,5,5)               0.0000000     
 -----------------------------------------------




 CHD PACKAGE (CHD-FROM-IBOUND) FLOW RATES   PERIOD     11   STEP        8
 -----------------------------------------------
   NUMBER   CELLID                    RATE      
 -----------------------------------------------
     1      (1,1,1)              -5249.6098     
     2      (1,1,2)              -5249.6070     
     3      (1,1,3)              -5249.6063     
     4      (1,1,4)              -5249.6075     
     5      (1,1,5)              -5249.6092     
     6      (1,1,6)              -5249.6109     
     7      (1,1,7)              -5249.6130     
     8      (1,1,8)              -5249.6159     
     9      (1,1,9)              -5249.6186     
     10     (1,21,1)             -5249.6163     
     11     (1,21,2)             -5249.6127     
     12     (1,21,3)             -5249.6094     
     13     (1,21,4)             -5249.6072     
     14     (1,21,5)             -5249.6054     
     15     (1,21,6)             -5249.6036     
     16     (1,21,7)             -5249.6031     
     17     (1,21,8)             -5249.6060     
     18     (1,21,9)             -5249.6117     
 -----------------------------------------------




 HEAD WILL BE SAVED ON UNIT 1016 AT END OF TIME STEP    8, STRESS PERIOD   11


  VOLUME BUDGET FOR ENTIRE MODEL AT END OF TIME STEP    8, STRESS PERIOD  11
  ---------------------------------------------------------------------------------------------------

     CUMULATIVE VOLUME      L**3       RATES FOR THIS TIME STEP      L**3/T          PACKAGE NAME    
     ------------------                 ------------------------                     ----------------

           IN:                                      IN:
           ---                                      ---
              STO-SS =    13102159.1396                STO-SS =       87592.7623     STORAGE                          
              STO-SY =      395048.6837                STO-SY =        2625.2121     STORAGE                          
                 WEL =           0.0000                   WEL =           0.0000     WEL-1                            
                RCHA =    32682717.0000                  RCHA =        4275.0000     RCH-1                            
                 CHD =           0.0000                   CHD =           0.0000     CHD-FROM-IBOUND                  

            TOTAL IN =    46179924.8233              TOTAL IN =       94492.9744

          OUT:                                     OUT:
          ----                                     ----
              STO-SS =    16442562.6098                STO-SS =           0.0000     STORAGE                          
              STO-SY =      491261.5239                STO-SY =           0.0000     STORAGE                          
                 WEL =           0.0000                   WEL =           0.0000     WEL-1                            
                RCHA =           0.0000                  RCHA =           0.0000     RCH-1                            
                 CHD =    29246102.4317                   CHD =       94492.9736     CHD-FROM-IBOUND                  

           TOTAL OUT =    46179926.5654             TOTAL OUT =       94492.9736

            IN - OUT =          -1.7421              IN - OUT =       7.5091E-04

 PERCENT DISCREPANCY =          -0.00     PERCENT DISCREPANCY =           0.00




         TIME SUMMARY AT END OF TIME STEP    8 IN STRESS PERIOD   11
                    SECONDS     MINUTES      HOURS       DAYS        YEARS
                    -----------------------------------------------------------
   TIME STEP LENGTH 5.81680E+05  9694.7      161.58      6.7324     1.84323E-02
 STRESS PERIOD TIME 2.67840E+06  44640.      744.00      31.000     8.48734E-02
         TOTAL TIME 2.63520E+07 4.39200E+05  7320.0      305.00     0.83504    


end timestep


start timestep kper="12" kstp="1" mode="normal"


 OUTPUT CONTROL FOR STRESS PERIOD 12 IS REPEATED USING SETTINGS FROM A PREVIOUS STRESS PERIOD.


 STRESS PERIOD 12 IS TRANSIENT


 REUSING WELS FROM LAST STRESS PERIOD

 REUSING RCHS FROM LAST STRESS PERIOD

 REUSING CHDS FROM LAST STRESS PERIOD
 UBDSV1 SAVING     FLOW-JA-FACE ON UNIT   1015 AT TIME STEP      1, STRESS PERIOD     12
 UBDSV06 SAVING              WEL IN MODEL MUMODEL          PACKAGE MUMODEL         CONNECTED TO MODEL MUMODEL          PACKAGE WEL-1            ON UNIT   1015 AT TIME STEP      1, STRESS PERIOD     12
 UBDSV06 SAVING             RCHA IN MODEL MUMODEL          PACKAGE MUMODEL         CONNECTED TO MODEL MUMODEL          PACKAGE RCH-1            ON UNIT   1015 AT TIME STEP      1, STRESS PERIOD     12

 WEL PACKAGE (WEL-1) FLOW RATES   PERIOD     12   STEP        1
 -----------------------------------------------
   NUMBER   CELLID                    RATE      
 -----------------------------------------------
     1      (1,5,5)               0.0000000     
     2      (1,11,5)              0.0000000     
     3      (1,5,5)               0.0000000     
 -----------------------------------------------




 CHD PACKAGE (CHD-FROM-IBOUND) FLOW RATES   PERIOD     12   STEP        1
 -----------------------------------------------
   NUMBER   CELLID                    RATE      
 -----------------------------------------------
     1      (1,1,1)              -5247.9055     
     2      (1,1,2)              -5247.9027     
     3      (1,1,3)              -5247.9020     
     4      (1,1,4)              -5247.9032     
     5      (1,1,5)              -5247.9049     
     6      (1,1,6)              -5247.9066     
     7      (1,1,7)              -5247.9087     
     8      (1,1,8)              -5247.9116     
     9      (1,1,9)              -5247.9143     
     10     (1,21,1)             -5247.9119     
     11     (1,21,2)             -5247.9084     
     12     (1,21,3)             -5247.9051     
     13     (1,21,4)             -5247.9029     
     14     (1,21,5)             -5247.9011     
     15     (1,21,6)             -5247.8993     
     16     (1,21,7)             -5247.8988     
     17     (1,21,8)             -5247.9017     
     18     (1,21,9)             -5247.9073     
 -----------------------------------------------




 HEAD WILL BE SAVED ON UNIT 1016 AT END OF TIME STEP    1, STRESS PERIOD   12


  VOLUME BUDGET FOR ENTIRE MODEL AT END OF TIME STEP    1, STRESS PERIOD  12
  ---------------------------------------------------------------------------------------------------

     CUMULATIVE VOLUME      L**3       RATES FOR THIS TIME STEP      L**3/T          PACKAGE NAME    
     ------------------                 ------------------------                     ----------------

           IN:                                      IN:
           ---                                      ---
              STO-SS =    13261373.5158                STO-SS =       87563.0498     STORAGE                          
              STO-SY =      399820.3049                STO-SY =        2624.2461     STORAGE                          
                 WEL =           0.0000                   WEL =           0.0000     WEL-1                            
                RCHA =    32690490.1584                  RCHA =        4275.0000     RCH-1                            
                 CHD =           0.0000                   CHD =           0.0000     CHD-FROM-IBOUND                  

            TOTAL IN =    46351683.9791              TOTAL IN =       94462.2959

          OUT:                                     OUT:
          ----                                     ----
              STO-SS =    16442562.6098                STO-SS =           0.0000     STORAGE                          
              STO-SY =      491261.5239                STO-SY =           0.0000     STORAGE                          
                 WEL =           0.0000                   WEL =           0.0000     WEL-1                            
                RCHA =           0.0000                  RCHA =           0.0000     RCH-1                            
                 CHD =    29417861.5875                   CHD =       94462.2959     CHD-FROM-IBOUND                  

           TOTAL OUT =    46351685.7212             TOTAL OUT =       94462.2959

            IN - OUT =          -1.7421              IN - OUT =       1.9072E-05

 PERCENT DISCREPANCY =          -0.00     PERCENT DISCREPANCY =           0.00




         TIME SUMMARY AT END OF TIME STEP    1 IN STRESS PERIOD   12
                    SECONDS     MINUTES      HOURS       DAYS        YEARS
                    -----------------------------------------------------------
   TIME STEP LENGTH 1.57100E+05  2618.3      43.639      1.8183     4.97819E-03
 STRESS PERIOD TIME 1.57100E+05  2618.3      43.639      1.8183     4.97819E-03
         TOTAL TIME 2.65091E+07 4.41818E+05  7363.6      306.82     0.84002    


end timestep


start timestep kper="12" kstp="2" mode="normal"

 UBDSV1 SAVING     FLOW-JA-FACE ON UNIT   1015 AT TIME STEP      2, STRESS PERIOD     12
 UBDSV06 SAVING              WEL IN MODEL MUMODEL          PACKAGE MUMODEL         CONNECTED TO MODEL MUMODEL          PACKAGE WEL-1            ON UNIT   1015 AT TIME STEP      2, STRESS PERIOD     12
 UBDSV06 SAVING             RCHA IN MODEL MUMODEL          PACKAGE MUMODEL         CONNECTED TO MODEL MUMODEL          PACKAGE RCH-1            ON UNIT   1015 AT TIME STEP      2, STRESS PERIOD     12

 WEL PACKAGE (WEL-1) FLOW RATES   PERIOD     12   STEP        2
 -----------------------------------------------
   NUMBER   CELLID                    RATE      
 -----------------------------------------------
     1      (1,5,5)               0.0000000     
     2      (1,11,5)              0.0000000     
     3      (1,5,5)               0.0000000     
 -----------------------------------------------




 CHD PACKAGE (CHD-FROM-IBOUND) FLOW RATES   PERIOD     12   STEP        2
 -----------------------------------------------
   NUMBER   CELLID                    RATE      
 -----------------------------------------------
     1      (1,1,1)              -5245.8682     
     2      (1,1,2)              -5245.8655     
     3      (1,1,3)              -5245.8648     
     4      (1,1,4)              -5245.8659     
     5      (1,1,5)              -5245.8676     
     6      (1,1,6)              -5245.8693     
     7      (1,1,7)              -5245.8714     
     8      (1,1,8)              -5245.8743     
     9      (1,1,9)              -5245.8770     
     10     (1,21,1)             -5245.8746     
     11     (1,21,2)             -5245.8711     
     12     (1,21,3)             -5245.8678     
     13     (1,21,4)             -5245.8657     
     14     (1,21,5)             -5245.8638     
     15     (1,21,6)             -5245.8620     
     16     (1,21,7)             -5245.8616     
     17     (1,21,8)             -5245.8645     
     18     (1,21,9)             -5245.8701     
 -----------------------------------------------




 HEAD WILL BE SAVED ON UNIT 1016 AT END OF TIME STEP    2, STRESS PERIOD   12


  VOLUME BUDGET FOR ENTIRE MODEL AT END OF TIME STEP    2, STRESS PERIOD  12
  ---------------------------------------------------------------------------------------------------

     CUMULATIVE VOLUME      L**3       RATES FOR THIS TIME STEP      L**3/T          PACKAGE NAME    
     ------------------                 ------------------------                     ----------------

           IN:                                      IN:
           ---                                      ---
              STO-SS =    13452353.6122                STO-SS =       87527.6891     STORAGE                          
              STO-SY =      405543.3926                STO-SY =        2622.9363     STORAGE                          
                 WEL =           0.0000                   WEL =           0.0000     WEL-1                            
                RCHA =    32699817.9485                  RCHA =        4275.0000     RCH-1                            
                 CHD =           0.0000                   CHD =           0.0000     CHD-FROM-IBOUND                  

            TOTAL IN =    46557714.9533              TOTAL IN =       94425.6254

          OUT:                                     OUT:
          ----                                     ----
              STO-SS =    16442562.6098                STO-SS =           0.0000     STORAGE                          
              STO-SY =      491261.5239                STO-SY =           0.0000     STORAGE                          
                 WEL =           0.0000                   WEL =           0.0000     WEL-1                            
                RCHA =           0.0000                  RCHA =           0.0000     RCH-1                            
                 CHD =    29623892.5616                   CHD =       94425.6254     CHD-FROM-IBOUND                  

           TOTAL OUT =    46557716.6953             TOTAL OUT =       94425.6254

            IN - OUT =          -1.7420              IN - OUT =       2.9309E-05

 PERCENT DISCREPANCY =          -0.00     PERCENT DISCREPANCY =           0.00




         TIME SUMMARY AT END OF TIME STEP    2 IN STRESS PERIOD   12
                    SECONDS     MINUTES      HOURS       DAYS        YEARS
                    -----------------------------------------------------------
   TIME STEP LENGTH 1.88520E+05  3142.0      52.367      2.1819     5.97382E-03
 STRESS PERIOD TIME 3.45619E+05  5760.3      96.005      4.0002     1.09520E-02
         TOTAL TIME 2.66976E+07 4.44960E+05  7416.0      309.00     0.84600    


end timestep


start timestep kper="12" kstp="3" mode="normal"

 UBDSV1 SAVING     FLOW-JA-FACE ON UNIT   1015 AT TIME STEP      3, STRESS PERIOD     12
 UBDSV06 SAVING              WEL IN MODEL MUMODEL          PACKAGE MUMODEL         CONNECTED TO MODEL MUMODEL          PACKAGE WEL-1            ON UNIT   1015 AT TIME STEP      3, STRESS PERIOD     12
 UBDSV06 SAVING             RCHA IN MODEL MUMODEL          PACKAGE MUMODEL         CONNECTED TO MODEL MUMODEL          PACKAGE RCH-1            ON UNIT   1015 AT TIME STEP      3, STRESS PERIOD     12

 WEL PACKAGE (WEL-1) FLOW RATES   PERIOD     12   STEP        3
 -----------------------------------------------
   NUMBER   CELLID                    RATE      
 -----------------------------------------------
     1      (1,5,5)               0.0000000     
     2      (1,11,5)              0.0000000     
     3      (1,5,5)               0.0000000     
 -----------------------------------------------




 CHD PACKAGE (CHD-FROM-IBOUND) FLOW RATES   PERIOD     12   STEP        3
 -----------------------------------------------
   NUMBER   CELLID                    RATE      
 -----------------------------------------------
     1      (1,1,1)              -5243.4341     
     2      (1,1,2)              -5243.4314     
     3      (1,1,3)              -5243.4307     
     4      (1,1,4)              -5243.4318     
     5      (1,1,5)              -5243.4335     
     6      (1,1,6)              -5243.4352     
     7      (1,1,7)              -5243.4373     
     8      (1,1,8)              -5243.4402     
     9      (1,1,9)              -5243.4428     
     10     (1,21,1)             -5243.4404     
     11     (1,21,2)             -5243.4369     
     12     (1,21,3)             -5243.4337     
     13     (1,21,4)             -5243.4315     
     14     (1,21,5)             -5243.4297     
     15     (1,21,6)             -5243.4279     
     16     (1,21,7)             -5243.4275     
     17     (1,21,8)             -5243.4304     
     18     (1,21,9)             -5243.4360     
 -----------------------------------------------




 HEAD WILL BE SAVED ON UNIT 1016 AT END OF TIME STEP    3, STRESS PERIOD   12


  VOLUME BUDGET FOR ENTIRE MODEL AT END OF TIME STEP    3, STRESS PERIOD  12
  ---------------------------------------------------------------------------------------------------

     CUMULATIVE VOLUME      L**3       RATES FOR THIS TIME STEP      L**3/T          PACKAGE NAME    
     ------------------                 ------------------------                     ----------------

           IN:                                      IN:
           ---                                      ---
              STO-SS =    13681419.1020                STO-SS =       87485.4385     STORAGE                          
              STO-SY =      412407.0032                STO-SY =        2621.3726     STORAGE                          
                 WEL =           0.0000                   WEL =           0.0000     WEL-1                            
                RCHA =    32711011.2967                  RCHA =        4275.0000     RCH-1                            
                 CHD =           0.0000                   CHD =           0.0000     CHD-FROM-IBOUND                  

            TOTAL IN =    46804837.4019              TOTAL IN =       94381.8110

          OUT:                                     OUT:
          ----                                     ----
              STO-SS =    16442562.6098                STO-SS =           0.0000     STORAGE                          
              STO-SY =      491261.5239                STO-SY =           0.0000     STORAGE                          
                 WEL =           0.0000                   WEL =           0.0000     WEL-1                            
                RCHA =           0.0000                  RCHA =           0.0000     RCH-1                            
                 CHD =    29871015.0101                   CHD =       94381.8110     CHD-FROM-IBOUND                  

           TOTAL OUT =    46804839.1438             TOTAL OUT =       94381.8110

            IN - OUT =          -1.7419              IN - OUT =       4.6649E-05

 PERCENT DISCREPANCY =          -0.00     PERCENT DISCREPANCY =           0.00




         TIME SUMMARY AT END OF TIME STEP    3 IN STRESS PERIOD   12
                    SECONDS     MINUTES      HOURS       DAYS        YEARS
                    -----------------------------------------------------------
   TIME STEP LENGTH 2.26223E+05  3770.4      62.840      2.6183     7.16859E-03
 STRESS PERIOD TIME 5.71843E+05  9530.7      158.85      6.6185     1.81206E-02
         TOTAL TIME 2.69238E+07 4.48731E+05  7478.8      311.62     0.85317    


end timestep


start timestep kper="12" kstp="4" mode="normal"

 UBDSV1 SAVING     FLOW-JA-FACE ON UNIT   1015 AT TIME STEP      4, STRESS PERIOD     12
 UBDSV06 SAVING              WEL IN MODEL MUMODEL          PACKAGE MUMODEL         CONNECTED TO MODEL MUMODEL          PACKAGE WEL-1            ON UNIT   1015 AT TIME STEP      4, STRESS PERIOD     12
 UBDSV06 SAVING             RCHA IN MODEL MUMODEL          PACKAGE MUMODEL         CONNECTED TO MODEL MUMODEL          PACKAGE RCH-1            ON UNIT   1015 AT TIME STEP      4, STRESS PERIOD     12

 WEL PACKAGE (WEL-1) FLOW RATES   PERIOD     12   STEP        4
 -----------------------------------------------
   NUMBER   CELLID                    RATE      
 -----------------------------------------------
     1      (1,5,5)               0.0000000     
     2      (1,11,5)              0.0000000     
     3      (1,5,5)               0.0000000     
 -----------------------------------------------




 CHD PACKAGE (CHD-FROM-IBOUND) FLOW RATES   PERIOD     12   STEP        4
 -----------------------------------------------
   NUMBER   CELLID                    RATE      
 -----------------------------------------------
     1      (1,1,1)              -5240.5282     
     2      (1,1,2)              -5240.5255     
     3      (1,1,3)              -5240.5248     
     4      (1,1,4)              -5240.5259     
     5      (1,1,5)              -5240.5276     
     6      (1,1,6)              -5240.5293     
     7      (1,1,7)              -5240.5314     
     8      (1,1,8)              -5240.5342     
     9      (1,1,9)              -5240.5369     
     10     (1,21,1)             -5240.5345     
     11     (1,21,2)             -5240.5310     
     12     (1,21,3)             -5240.5278     
     13     (1,21,4)             -5240.5256     
     14     (1,21,5)             -5240.5238     
     15     (1,21,6)             -5240.5220     
     16     (1,21,7)             -5240.5216     
     17     (1,21,8)             -5240.5246     
     18     (1,21,9)             -5240.5300     
 -----------------------------------------------




 HEAD WILL BE SAVED ON UNIT 1016 AT END OF TIME STEP    4, STRESS PERIOD   12


  VOLUME BUDGET FOR ENTIRE MODEL AT END OF TIME STEP    4, STRESS PERIOD  12
  ---------------------------------------------------------------------------------------------------

     CUMULATIVE VOLUME      L**3       RATES FOR THIS TIME STEP      L**3/T          PACKAGE NAME    
     ------------------                 ------------------------                     ----------------

           IN:                                      IN:
           ---                                      ---
              STO-SS =    13956139.2043                STO-SS =       87434.9974     STORAGE                          
              STO-SY =      420637.4755                STO-SY =        2619.5073     STORAGE                          
                 WEL =           0.0000                   WEL =           0.0000     WEL-1                            
                RCHA =    32724443.3144                  RCHA =        4275.0000     RCH-1                            
                 CHD =           0.0000                   CHD =           0.0000     CHD-FROM-IBOUND                  

            TOTAL IN =    47101219.9942              TOTAL IN =       94329.5047

          OUT:                                     OUT:
          ----                                     ----
              STO-SS =    16442562.6098                STO-SS =           0.0000     STORAGE                          
              STO-SY =      491261.5239                STO-SY =           0.0000     STORAGE                          
                 WEL =           0.0000                   WEL =           0.0000     WEL-1                            
                RCHA =           0.0000                  RCHA =           0.0000     RCH-1                            
                 CHD =    30167397.6022                   CHD =       94329.5046     CHD-FROM-IBOUND                  

           TOTAL OUT =    47101221.7359             TOTAL OUT =       94329.5046

            IN - OUT =          -1.7417              IN - OUT =       7.6990E-05

 PERCENT DISCREPANCY =          -0.00     PERCENT DISCREPANCY =           0.00




         TIME SUMMARY AT END OF TIME STEP    4 IN STRESS PERIOD   12
                    SECONDS     MINUTES      HOURS       DAYS        YEARS
                    -----------------------------------------------------------
   TIME STEP LENGTH 2.71468E+05  4524.5      75.408      3.1420     8.60231E-03
 STRESS PERIOD TIME 8.43311E+05  14055.      234.25      9.7605     2.67229E-02
         TOTAL TIME 2.71953E+07 4.53255E+05  7554.3      314.76     0.86177    


end timestep


start timestep kper="12" kstp="5" mode="normal"

 UBDSV1 SAVING     FLOW-JA-FACE ON UNIT   1015 AT TIME STEP      5, STRESS PERIOD     12
 UBDSV06 SAVING              WEL IN MODEL MUMODEL          PACKAGE MUMODEL         CONNECTED TO MODEL MUMODEL          PACKAGE WEL-1            ON UNIT   1015 AT TIME STEP      5, STRESS PERIOD     12
 UBDSV06 SAVING             RCHA IN MODEL MUMODEL          PACKAGE MUMODEL         CONNECTED TO MODEL MUMODEL          PACKAGE RCH-1            ON UNIT   1015 AT TIME STEP      5, STRESS PERIOD     12

 WEL PACKAGE (WEL-1) FLOW RATES   PERIOD     12   STEP        5
 -----------------------------------------------
   NUMBER   CELLID                    RATE      
 -----------------------------------------------
     1      (1,5,5)               0.0000000     
     2      (1,11,5)              0.0000000     
     3      (1,5,5)               0.0000000     
 -----------------------------------------------




 CHD PACKAGE (CHD-FROM-IBOUND) FLOW RATES   PERIOD     12   STEP        5
 -----------------------------------------------
   NUMBER   CELLID                    RATE      
 -----------------------------------------------
     1      (1,1,1)              -5237.0625     
     2      (1,1,2)              -5237.0599     
     3      (1,1,3)              -5237.0591     
     4      (1,1,4)              -5237.0602     
     5      (1,1,5)              -5237.0619     
     6      (1,1,6)              -5237.0636     
     7      (1,1,7)              -5237.0657     
     8      (1,1,8)              -5237.0685     
     9      (1,1,9)              -5237.0711     
     10     (1,21,1)             -5237.0687     
     11     (1,21,2)             -5237.0653     
     12     (1,21,3)             -5237.0621     
     13     (1,21,4)             -5237.0599     
     14     (1,21,5)             -5237.0581     
     15     (1,21,6)             -5237.0564     
     16     (1,21,7)             -5237.0560     
     17     (1,21,8)             -5237.0589     
     18     (1,21,9)             -5237.0643     
 -----------------------------------------------




 HEAD WILL BE SAVED ON UNIT 1016 AT END OF TIME STEP    5, STRESS PERIOD   12


  VOLUME BUDGET FOR ENTIRE MODEL AT END OF TIME STEP    5, STRESS PERIOD  12
  ---------------------------------------------------------------------------------------------------

     CUMULATIVE VOLUME      L**3       RATES FOR THIS TIME STEP      L**3/T          PACKAGE NAME    
     ------------------                 ------------------------                     ----------------

           IN:                                      IN:
           ---                                      ---
              STO-SS =    14285576.4996                STO-SS =       87374.8372     STORAGE                          
              STO-SY =      430505.6637                STO-SY =        2617.2851     STORAGE                          
                 WEL =           0.0000                   WEL =           0.0000     WEL-1                            
                RCHA =    32740561.7357                  RCHA =        4275.0000     RCH-1                            
                 CHD =           0.0000                   CHD =           0.0000     CHD-FROM-IBOUND                  

            TOTAL IN =    47456643.8990              TOTAL IN =       94267.1223

          OUT:                                     OUT:
          ----                                     ----
              STO-SS =    16442562.6098                STO-SS =           0.0000     STORAGE                          
              STO-SY =      491261.5239                STO-SY =           0.0000     STORAGE                          
                 WEL =           0.0000                   WEL =           0.0000     WEL-1                            
                RCHA =           0.0000                  RCHA =           0.0000     RCH-1                            
                 CHD =    30522821.5065                   CHD =       94267.1222     CHD-FROM-IBOUND                  

           TOTAL OUT =    47456645.6402             TOTAL OUT =       94267.1222

            IN - OUT =          -1.7412              IN - OUT =       1.3008E-04

 PERCENT DISCREPANCY =          -0.00     PERCENT DISCREPANCY =           0.00




         TIME SUMMARY AT END OF TIME STEP    5 IN STRESS PERIOD   12
                    SECONDS     MINUTES      HOURS       DAYS        YEARS
                    -----------------------------------------------------------
   TIME STEP LENGTH 3.25762E+05  5429.4      90.489      3.7704     1.03228E-02
 STRESS PERIOD TIME 1.16907E+06  19485.      324.74      13.531     3.70457E-02
         TOTAL TIME 2.75211E+07 4.58685E+05  7644.7      318.53     0.87209    


end timestep


start timestep kper="12" kstp="6" mode="normal"

 UBDSV1 SAVING     FLOW-JA-FACE ON UNIT   1015 AT TIME STEP      6, STRESS PERIOD     12
 UBDSV06 SAVING              WEL IN MODEL MUMODEL          PACKAGE MUMODEL         CONNECTED TO MODEL MUMODEL          PACKAGE WEL-1            ON UNIT   1015 AT TIME STEP      6, STRESS PERIOD     12
 UBDSV06 SAVING             RCHA IN MODEL MUMODEL          PACKAGE MUMODEL         CONNECTED TO MODEL MUMODEL          PACKAGE RCH-1            ON UNIT   1015 AT TIME STEP      6, STRESS PERIOD     12

 WEL PACKAGE (WEL-1) FLOW RATES   PERIOD     12   STEP        6
 -----------------------------------------------
   NUMBER   CELLID                    RATE      
 -----------------------------------------------
     1      (1,5,5)               0.0000000     
     2      (1,11,5)              0.0000000     
     3      (1,5,5)               0.0000000     
 -----------------------------------------------




 CHD PACKAGE (CHD-FROM-IBOUND) FLOW RATES   PERIOD     12   STEP        6
 -----------------------------------------------
   NUMBER   CELLID                    RATE      
 -----------------------------------------------
     1      (1,1,1)              -5232.9340     
     2      (1,1,2)              -5232.9314     
     3      (1,1,3)              -5232.9307     
     4      (1,1,4)              -5232.9318     
     5      (1,1,5)              -5232.9334     
     6      (1,1,6)              -5232.9351     
     7      (1,1,7)              -5232.9372     
     8      (1,1,8)              -5232.9400     
     9      (1,1,9)              -5232.9426     
     10     (1,21,1)             -5232.9401     
     11     (1,21,2)             -5232.9367     
     12     (1,21,3)             -5232.9336     
     13     (1,21,4)             -5232.9314     
     14     (1,21,5)             -5232.9296     
     15     (1,21,6)             -5232.9279     
     16     (1,21,7)             -5232.9276     
     17     (1,21,8)             -5232.9305     
     18     (1,21,9)             -5232.9359     
 -----------------------------------------------




 HEAD WILL BE SAVED ON UNIT 1016 AT END OF TIME STEP    6, STRESS PERIOD   12


  VOLUME BUDGET FOR ENTIRE MODEL AT END OF TIME STEP    6, STRESS PERIOD  12
  ---------------------------------------------------------------------------------------------------

     CUMULATIVE VOLUME      L**3       RATES FOR THIS TIME STEP      L**3/T          PACKAGE NAME    
     ------------------                 ------------------------                     ----------------

           IN:                                      IN:
           ---                                      ---
              STO-SS =    14680576.9906                STO-SS =       87303.1684     STORAGE                          
              STO-SY =      442335.5275                STO-SY =        2614.6413     STORAGE                          
                 WEL =           0.0000                   WEL =           0.0000     WEL-1                            
                RCHA =    32759903.8413                  RCHA =        4275.0000     RCH-1                            
                 CHD =           0.0000                   CHD =           0.0000     CHD-FROM-IBOUND                  

            TOTAL IN =    47882816.3595              TOTAL IN =       94192.8097

          OUT:                                     OUT:
          ----                                     ----
              STO-SS =    16442562.6098                STO-SS =           0.0000     STORAGE                          
              STO-SY =      491261.5239                STO-SY =           0.0000     STORAGE                          
                 WEL =           0.0000                   WEL =           0.0000     WEL-1                            
                RCHA =           0.0000                  RCHA =           0.0000     RCH-1                            
                 CHD =    30948993.9660                   CHD =       94192.8095     CHD-FROM-IBOUND                  

           TOTAL OUT =    47882818.0996             TOTAL OUT =       94192.8095

            IN - OUT =          -1.7402              IN - OUT =       2.1410E-04

 PERCENT DISCREPANCY =          -0.00     PERCENT DISCREPANCY =           0.00




         TIME SUMMARY AT END OF TIME STEP    6 IN STRESS PERIOD   12
                    SECONDS     MINUTES      HOURS       DAYS        YEARS
                    -----------------------------------------------------------
   TIME STEP LENGTH 3.90914E+05  6515.2      108.59      4.5245     1.23873E-02
 STRESS PERIOD TIME 1.55999E+06  26000.      433.33      18.055     4.94330E-02
         TOTAL TIME 2.79120E+07 4.65200E+05  7753.3      323.06     0.88448    


end timestep


start timestep kper="12" kstp="7" mode="normal"

 UBDSV1 SAVING     FLOW-JA-FACE ON UNIT   1015 AT TIME STEP      7, STRESS PERIOD     12
 UBDSV06 SAVING              WEL IN MODEL MUMODEL          PACKAGE MUMODEL         CONNECTED TO MODEL MUMODEL          PACKAGE WEL-1            ON UNIT   1015 AT TIME STEP      7, STRESS PERIOD     12
 UBDSV06 SAVING             RCHA IN MODEL MUMODEL          PACKAGE MUMODEL         CONNECTED TO MODEL MUMODEL          PACKAGE RCH-1            ON UNIT   1015 AT TIME STEP      7, STRESS PERIOD     12

 WEL PACKAGE (WEL-1) FLOW RATES   PERIOD     12   STEP        7
 -----------------------------------------------
   NUMBER   CELLID                    RATE      
 -----------------------------------------------
     1      (1,5,5)               0.0000000     
     2      (1,11,5)              0.0000000     
     3      (1,5,5)               0.0000000     
 -----------------------------------------------




 CHD PACKAGE (CHD-FROM-IBOUND) FLOW RATES   PERIOD     12   STEP        7
 -----------------------------------------------
   NUMBER   CELLID                    RATE      
 -----------------------------------------------
     1      (1,1,1)              -5228.0227     
     2      (1,1,2)              -5228.0202     
     3      (1,1,3)              -5228.0194     
     4      (1,1,4)              -5228.0205     
     5      (1,1,5)              -5228.0221     
     6      (1,1,6)              -5228.0238     
     7      (1,1,7)              -5228.0259     
     8      (1,1,8)              -5228.0287     
     9      (1,1,9)              -5228.0313     
     10     (1,21,1)             -5228.0287     
     11     (1,21,2)             -5228.0254     
     12     (1,21,3)             -5228.0223     
     13     (1,21,4)             -5228.0201     
     14     (1,21,5)             -5228.0184     
     15     (1,21,6)             -5228.0167     
     16     (1,21,7)             -5228.0164     
     17     (1,21,8)             -5228.0193     
     18     (1,21,9)             -5228.0246     
 -----------------------------------------------




 HEAD WILL BE SAVED ON UNIT 1016 AT END OF TIME STEP    7, STRESS PERIOD   12


  VOLUME BUDGET FOR ENTIRE MODEL AT END OF TIME STEP    7, STRESS PERIOD  12
  ---------------------------------------------------------------------------------------------------

     CUMULATIVE VOLUME      L**3       RATES FOR THIS TIME STEP      L**3/T          PACKAGE NAME    
     ------------------                 ------------------------                     ----------------

           IN:                                      IN:
           ---                                      ---
              STO-SS =    15154114.6587                STO-SS =       87217.9058     STORAGE                          
              STO-SY =      456514.3139                STO-SY =        2611.5009     STORAGE                          
                 WEL =           0.0000                   WEL =           0.0000     WEL-1                            
                RCHA =    32783114.3680                  RCHA =        4275.0000     RCH-1                            
                 CHD =           0.0000                   CHD =           0.0000     CHD-FROM-IBOUND                  

            TOTAL IN =    48393743.3405              TOTAL IN =       94104.4068

          OUT:                                     OUT:
          ----                                     ----
              STO-SS =    16442562.6098                STO-SS =           0.0000     STORAGE                          
              STO-SY =      491261.5239                STO-SY =           0.0000     STORAGE                          
                 WEL =           0.0000                   WEL =           0.0000     WEL-1                            
                RCHA =           0.0000                  RCHA =           0.0000     RCH-1                            
                 CHD =    31459920.9451                   CHD =       94104.4064     CHD-FROM-IBOUND                  

           TOTAL OUT =    48393745.0788             TOTAL OUT =       94104.4064

            IN - OUT =          -1.7383              IN - OUT =       3.5741E-04

 PERCENT DISCREPANCY =          -0.00     PERCENT DISCREPANCY =           0.00




         TIME SUMMARY AT END OF TIME STEP    7 IN STRESS PERIOD   12
                    SECONDS     MINUTES      HOURS       DAYS        YEARS
                    -----------------------------------------------------------
   TIME STEP LENGTH 4.69097E+05  7818.3      130.30      5.4294     1.48648E-02
 STRESS PERIOD TIME 2.02908E+06  33818.      563.63      23.485     6.42978E-02
         TOTAL TIME 2.83811E+07 4.73018E+05  7883.6      328.48     0.89934    


end timestep


start timestep kper="12" kstp="8" mode="normal"

 UBDSV1 SAVING     FLOW-JA-FACE ON UNIT   1015 AT TIME STEP      8, STRESS PERIOD     12
 UBDSV06 SAVING              WEL IN MODEL MUMODEL          PACKAGE MUMODEL         CONNECTED TO MODEL MUMODEL          PACKAGE WEL-1            ON UNIT   1015 AT TIME STEP      8, STRESS PERIOD     12
 UBDSV06 SAVING             RCHA IN MODEL MUMODEL          PACKAGE MUMODEL         CONNECTED TO MODEL MUMODEL          PACKAGE RCH-1            ON UNIT   1015 AT TIME STEP      8, STRESS PERIOD     12

 WEL PACKAGE (WEL-1) FLOW RATES   PERIOD     12   STEP        8
 -----------------------------------------------
   NUMBER   CELLID                    RATE      
 -----------------------------------------------
     1      (1,5,5)               0.0000000     
     2      (1,11,5)              0.0000000     
     3      (1,5,5)               0.0000000     
 -----------------------------------------------




 CHD PACKAGE (CHD-FROM-IBOUND) FLOW RATES   PERIOD     12   STEP        8
 -----------------------------------------------
   NUMBER   CELLID                    RATE      
 -----------------------------------------------
     1      (1,1,1)              -5222.1896     
     2      (1,1,2)              -5222.1871     
     3      (1,1,3)              -5222.1864     
     4      (1,1,4)              -5222.1874     
     5      (1,1,5)              -5222.1890     
     6      (1,1,6)              -5222.1907     
     7      (1,1,7)              -5222.1927     
     8      (1,1,8)              -5222.1955     
     9      (1,1,9)              -5222.1981     
     10     (1,21,1)             -5222.1955     
     11     (1,21,2)             -5222.1923     
     12     (1,21,3)             -5222.1891     
     13     (1,21,4)             -5222.1870     
     14     (1,21,5)             -5222.1853     
     15     (1,21,6)             -5222.1837     
     16     (1,21,7)             -5222.1834     
     17     (1,21,8)             -5222.1863     
     18     (1,21,9)             -5222.1915     
 -----------------------------------------------




 HEAD WILL BE SAVED ON UNIT 1016 AT END OF TIME STEP    8, STRESS PERIOD   12


  VOLUME BUDGET FOR ENTIRE MODEL AT END OF TIME STEP    8, STRESS PERIOD  12
  ---------------------------------------------------------------------------------------------------

     CUMULATIVE VOLUME      L**3       RATES FOR THIS TIME STEP      L**3/T          PACKAGE NAME    
     ------------------                 ------------------------                     ----------------

           IN:                                      IN:
           ---                                      ---
              STO-SS =    15721700.0472                STO-SS =       87116.6335     STORAGE                          
              STO-SY =      473504.6005                STO-SY =        2607.7778     STORAGE                          
                 WEL =           0.0000                   WEL =           0.0000     WEL-1                            
                RCHA =    32810967.0000                  RCHA =        4275.0000     RCH-1                            
                 CHD =           0.0000                   CHD =           0.0000     CHD-FROM-IBOUND                  

            TOTAL IN =    49006171.6477              TOTAL IN =       93999.4113

          OUT:                                     OUT:
          ----                                     ----
              STO-SS =    16442562.6098                STO-SS =           0.0000     STORAGE                          
              STO-SY =      491261.5239                STO-SY =           0.0000     STORAGE                          
                 WEL =           0.0000                   WEL =           0.0000     WEL-1                            
                RCHA =           0.0000                  RCHA =           0.0000     RCH-1                            
                 CHD =    32072349.2485                   CHD =       93999.4107     CHD-FROM-IBOUND                  

           TOTAL OUT =    49006173.3822             TOTAL OUT =       93999.4107

            IN - OUT =          -1.7344              IN - OUT =       5.8624E-04

 PERCENT DISCREPANCY =          -0.00     PERCENT DISCREPANCY =           0.00




         TIME SUMMARY AT END OF TIME STEP    8 IN STRESS PERIOD   12
                    SECONDS     MINUTES      HOURS       DAYS        YEARS
                    -----------------------------------------------------------
   TIME STEP LENGTH 5.62916E+05  9381.9      156.37      6.5152     1.78377E-02
 STRESS PERIOD TIME 2.59200E+06  43200.      720.00      30.000     8.21355E-02
         TOTAL TIME 2.89440E+07 4.82400E+05  8040.0      335.00     0.91718    


end timestep


start timestep kper="13" kstp="1" mode="normal"


 OUTPUT CONTROL FOR STRESS PERIOD 13 IS REPEATED USING SETTINGS FROM A PREVIOUS STRESS PERIOD.


 STRESS PERIOD 13 IS TRANSIENT


 REUSING WELS FROM LAST STRESS PERIOD

 REUSING CHDS FROM LAST STRESS PERIOD
 UBDSV1 SAVING     FLOW-JA-FACE ON UNIT   1015 AT TIME STEP      1, STRESS PERIOD     13
 UBDSV06 SAVING              WEL IN MODEL MUMODEL          PACKAGE MUMODEL         CONNECTED TO MODEL MUMODEL          PACKAGE WEL-1            ON UNIT   1015 AT TIME STEP      1, STRESS PERIOD     13
 UBDSV06 SAVING             RCHA IN MODEL MUMODEL          PACKAGE MUMODEL         CONNECTED TO MODEL MUMODEL          PACKAGE RCH-1            ON UNIT   1015 AT TIME STEP      1, STRESS PERIOD     13

 WEL PACKAGE (WEL-1) FLOW RATES   PERIOD     13   STEP        1
 -----------------------------------------------
   NUMBER   CELLID                    RATE      
 -----------------------------------------------
     1      (1,5,5)               0.0000000     
     2      (1,11,5)              0.0000000     
     3      (1,5,5)               0.0000000     
 -----------------------------------------------




 CHD PACKAGE (CHD-FROM-IBOUND) FLOW RATES   PERIOD     13   STEP        1
 -----------------------------------------------
   NUMBER   CELLID                    RATE      
 -----------------------------------------------
     1      (1,1,1)              -5221.3685     
     2      (1,1,2)              -5221.3660     
     3      (1,1,3)              -5221.3653     
     4      (1,1,4)              -5221.3663     
     5      (1,1,5)              -5221.3679     
     6      (1,1,6)              -5221.3695     
     7      (1,1,7)              -5221.3716     
     8      (1,1,8)              -5221.3744     
     9      (1,1,9)              -5221.3769     
     10     (1,21,1)             -5221.3744     
     11     (1,21,2)             -5221.3711     
     12     (1,21,3)             -5221.3680     
     13     (1,21,4)             -5221.3659     
     14     (1,21,5)             -5221.3642     
     15     (1,21,6)             -5221.3626     
     16     (1,21,7)             -5221.3623     
     17     (1,21,8)             -5221.3652     
     18     (1,21,9)             -5221.3703     
 -----------------------------------------------




 HEAD WILL BE SAVED ON UNIT 1016 AT END OF TIME STEP    1, STRESS PERIOD   13


  VOLUME BUDGET FOR ENTIRE MODEL AT END OF TIME STEP    1, STRESS PERIOD  13
  ---------------------------------------------------------------------------------------------------

     CUMULATIVE VOLUME      L**3       RATES FOR THIS TIME STEP      L**3/T          PACKAGE NAME    
     ------------------                 ------------------------                     ----------------

           IN:                                      IN:
           ---                                      ---
              STO-SS =    15815170.9550                STO-SS =       49747.8850     STORAGE                          
              STO-SY =      476297.1088                STO-SY =        1486.2526     STORAGE                          
                 WEL =           0.0000                   WEL =           0.0000     WEL-1                            
                RCHA =    32891289.6370                  RCHA =       42750.0000     RCH-1                            
                 CHD =           0.0000                   CHD =           0.0000     CHD-FROM-IBOUND                  

            TOTAL IN =    49182757.7008              TOTAL IN =       93984.1376

          OUT:                                     OUT:
          ----                                     ----
              STO-SS =    16442562.6098                STO-SS =           0.0000     STORAGE                          
              STO-SY =      491261.5239                STO-SY =           0.0000     STORAGE                          
                 WEL =           0.0000                   WEL =           0.0000     WEL-1                            
                RCHA =           0.0000                  RCHA =           0.0000     RCH-1                            
                 CHD =    32248936.2278                   CHD =       93984.6305     CHD-FROM-IBOUND                  

           TOTAL OUT =    49182760.3614             TOTAL OUT =       93984.6305

            IN - OUT =          -2.6606              IN - OUT =          -0.4929

 PERCENT DISCREPANCY =          -0.00     PERCENT DISCREPANCY =          -0.00




         TIME SUMMARY AT END OF TIME STEP    1 IN STRESS PERIOD   13
                    SECONDS     MINUTES      HOURS       DAYS        YEARS
                    -----------------------------------------------------------
   TIME STEP LENGTH 1.62336E+05  2705.6      45.093      1.8789     5.14413E-03
 STRESS PERIOD TIME 1.62336E+05  2705.6      45.093      1.8789     5.14413E-03
         TOTAL TIME 2.91063E+07 4.85106E+05  8085.1      336.88     0.92232    


end timestep


start timestep kper="13" kstp="2" mode="normal"

 UBDSV1 SAVING     FLOW-JA-FACE ON UNIT   1015 AT TIME STEP      2, STRESS PERIOD     13
 UBDSV06 SAVING              WEL IN MODEL MUMODEL          PACKAGE MUMODEL         CONNECTED TO MODEL MUMODEL          PACKAGE WEL-1            ON UNIT   1015 AT TIME STEP      2, STRESS PERIOD     13
 UBDSV06 SAVING             RCHA IN MODEL MUMODEL          PACKAGE MUMODEL         CONNECTED TO MODEL MUMODEL          PACKAGE RCH-1            ON UNIT   1015 AT TIME STEP      2, STRESS PERIOD     13

 WEL PACKAGE (WEL-1) FLOW RATES   PERIOD     13   STEP        2
 -----------------------------------------------
   NUMBER   CELLID                    RATE      
 -----------------------------------------------
     1      (1,5,5)               0.0000000     
     2      (1,11,5)              0.0000000     
     3      (1,5,5)               0.0000000     
 -----------------------------------------------




 CHD PACKAGE (CHD-FROM-IBOUND) FLOW RATES   PERIOD     13   STEP        2
 -----------------------------------------------
   NUMBER   CELLID                    RATE      
 -----------------------------------------------
     1      (1,1,1)              -5220.3166     
     2      (1,1,2)              -5220.3142     
     3      (1,1,3)              -5220.3134     
     4      (1,1,4)              -5220.3144     
     5      (1,1,5)              -5220.3160     
     6      (1,1,6)              -5220.3176     
     7      (1,1,7)              -5220.3197     
     8      (1,1,8)              -5220.3225     
     9      (1,1,9)              -5220.3250     
     10     (1,21,1)             -5220.3224     
     11     (1,21,2)             -5220.3192     
     12     (1,21,3)             -5220.3161     
     13     (1,21,4)             -5220.3140     
     14     (1,21,5)             -5220.3123     
     15     (1,21,6)             -5220.3107     
     16     (1,21,7)             -5220.3104     
     17     (1,21,8)             -5220.3134     
     18     (1,21,9)             -5220.3184     
 -----------------------------------------------




 HEAD WILL BE SAVED ON UNIT 1016 AT END OF TIME STEP    2, STRESS PERIOD   13


  VOLUME BUDGET FOR ENTIRE MODEL AT END OF TIME STEP    2, STRESS PERIOD  13
  ---------------------------------------------------------------------------------------------------

     CUMULATIVE VOLUME      L**3       RATES FOR THIS TIME STEP      L**3/T          PACKAGE NAME    
     ------------------                 ------------------------                     ----------------

           IN:                                      IN:
           ---                                      ---
              STO-SS =    15927294.6871                STO-SS =       49729.5421     STORAGE                          
              STO-SY =      479646.5648                STO-SY =        1485.5634     STORAGE                          
                 WEL =           0.0000                   WEL =           0.0000     WEL-1                            
                RCHA =    32987676.8015                  RCHA =       42750.0000     RCH-1                            
                 CHD =           0.0000                   CHD =           0.0000     CHD-FROM-IBOUND                  

            TOTAL IN =    49394618.0534              TOTAL IN =       93965.1055

          OUT:                                     OUT:
          ----                                     ----
              STO-SS =    16442562.6098                STO-SS =           0.0000     STORAGE                          
              STO-SY =      491261.5239                STO-SY =           0.0000     STORAGE                          
                 WEL =           0.0000                   WEL =           0.0000     WEL-1                            
                RCHA =           0.0000                  RCHA =           0.0000     RCH-1                            
                 CHD =    32460797.9127                   CHD =       93965.6964     CHD-FROM-IBOUND                  

           TOTAL OUT =    49394622.0463             TOTAL OUT =       93965.6964

            IN - OUT =          -3.9929              IN - OUT =          -0.5909

 PERCENT DISCREPANCY =          -0.00     PERCENT DISCREPANCY =          -0.00




         TIME SUMMARY AT END OF TIME STEP    2 IN STRESS PERIOD   13
                    SECONDS     MINUTES      HOURS       DAYS        YEARS
                    -----------------------------------------------------------
   TIME STEP LENGTH 1.94804E+05  3246.7      54.112      2.2547     6.17295E-03
 STRESS PERIOD TIME 3.57140E+05  5952.3      99.206      4.1336     1.13171E-02
         TOTAL TIME 2.93011E+07 4.88352E+05  8139.2      339.13     0.92850    


end timestep


start timestep kper="13" kstp="3" mode="normal"

 UBDSV1 SAVING     FLOW-JA-FACE ON UNIT   1015 AT TIME STEP      3, STRESS PERIOD     13
 UBDSV06 SAVING              WEL IN MODEL MUMODEL          PACKAGE MUMODEL         CONNECTED TO MODEL MUMODEL          PACKAGE WEL-1            ON UNIT   1015 AT TIME STEP      3, STRESS PERIOD     13
 UBDSV06 SAVING             RCHA IN MODEL MUMODEL          PACKAGE MUMODEL         CONNECTED TO MODEL MUMODEL          PACKAGE RCH-1            ON UNIT   1015 AT TIME STEP      3, STRESS PERIOD     13

 WEL PACKAGE (WEL-1) FLOW RATES   PERIOD     13   STEP        3
 -----------------------------------------------
   NUMBER   CELLID                    RATE      
 -----------------------------------------------
     1      (1,5,5)               0.0000000     
     2      (1,11,5)              0.0000000     
     3      (1,5,5)               0.0000000     
 -----------------------------------------------




 CHD PACKAGE (CHD-FROM-IBOUND) FLOW RATES   PERIOD     13   STEP        3
 -----------------------------------------------
   NUMBER   CELLID                    RATE      
 -----------------------------------------------
     1      (1,1,1)              -5218.9582     
     2      (1,1,2)              -5218.9558     
     3      (1,1,3)              -5218.9551     
     4      (1,1,4)              -5218.9561     
     5      (1,1,5)              -5218.9576     
     6      (1,1,6)              -5218.9593     
     7      (1,1,7)              -5218.9613     
     8      (1,1,8)              -5218.9641     
     9      (1,1,9)              -5218.9666     
     10     (1,21,1)             -5218.9640     
     11     (1,21,2)             -5218.9608     
     12     (1,21,3)             -5218.9577     
     13     (1,21,4)             -5218.9557     
     14     (1,21,5)             -5218.9539     
     15     (1,21,6)             -5218.9523     
     16     (1,21,7)             -5218.9521     
     17     (1,21,8)             -5218.9550     
     18     (1,21,9)             -5218.9601     
 -----------------------------------------------




 HEAD WILL BE SAVED ON UNIT 1016 AT END OF TIME STEP    3, STRESS PERIOD   13


  VOLUME BUDGET FOR ENTIRE MODEL AT END OF TIME STEP    3, STRESS PERIOD  13
  ---------------------------------------------------------------------------------------------------

     CUMULATIVE VOLUME      L**3       RATES FOR THIS TIME STEP      L**3/T          PACKAGE NAME    
     ------------------                 ------------------------                     ----------------

           IN:                                      IN:
           ---                                      ---
              STO-SS =    16061780.8809                STO-SS =       49706.5214     STORAGE                          
              STO-SY =      483663.6420                STO-SY =        1484.7244     STORAGE                          
                 WEL =           0.0000                   WEL =           0.0000     WEL-1                            
                RCHA =    33103341.3989                  RCHA =       42750.0000     RCH-1                            
                 CHD =           0.0000                   CHD =           0.0000     CHD-FROM-IBOUND                  

            TOTAL IN =    49648785.9218              TOTAL IN =       93941.2458

          OUT:                                     OUT:
          ----                                     ----
              STO-SS =    16442562.6098                STO-SS =           0.0000     STORAGE                          
              STO-SY =      491261.5239                STO-SY =           0.0000     STORAGE                          
                 WEL =           0.0000                   WEL =           0.0000     WEL-1                            
                RCHA =           0.0000                  RCHA =           0.0000     RCH-1                            
                 CHD =    32714965.7809                   CHD =       93941.2458     CHD-FROM-IBOUND                  

           TOTAL OUT =    49648789.9146             TOTAL OUT =       93941.2458

            IN - OUT =          -3.9928              IN - OUT =       3.5455E-05

 PERCENT DISCREPANCY =          -0.00     PERCENT DISCREPANCY =           0.00




         TIME SUMMARY AT END OF TIME STEP    3 IN STRESS PERIOD   13
                    SECONDS     MINUTES      HOURS       DAYS        YEARS
                    -----------------------------------------------------------
   TIME STEP LENGTH 2.33764E+05  3896.1      64.935      2.7056     7.40754E-03
 STRESS PERIOD TIME 5.90904E+05  9848.4      164.14      6.8392     1.87246E-02
         TOTAL TIME 2.95349E+07 4.92248E+05  8204.1      341.84     0.93590    


end timestep


start timestep kper="13" kstp="4" mode="normal"

 UBDSV1 SAVING     FLOW-JA-FACE ON UNIT   1015 AT TIME STEP      4, STRESS PERIOD     13
 UBDSV06 SAVING              WEL IN MODEL MUMODEL          PACKAGE MUMODEL         CONNECTED TO MODEL MUMODEL          PACKAGE WEL-1            ON UNIT   1015 AT TIME STEP      4, STRESS PERIOD     13
 UBDSV06 SAVING             RCHA IN MODEL MUMODEL          PACKAGE MUMODEL         CONNECTED TO MODEL MUMODEL          PACKAGE RCH-1            ON UNIT   1015 AT TIME STEP      4, STRESS PERIOD     13

 WEL PACKAGE (WEL-1) FLOW RATES   PERIOD     13   STEP        4
 -----------------------------------------------
   NUMBER   CELLID                    RATE      
 -----------------------------------------------
     1      (1,5,5)               0.0000000     
     2      (1,11,5)              0.0000000     
     3      (1,5,5)               0.0000000     
 -----------------------------------------------




 CHD PACKAGE (CHD-FROM-IBOUND) FLOW RATES   PERIOD     13   STEP        4
 -----------------------------------------------
   NUMBER   CELLID                    RATE      
 -----------------------------------------------
     1      (1,1,1)              -5217.4354     
     2      (1,1,2)              -5217.4331     
     3      (1,1,3)              -5217.4323     
     4      (1,1,4)              -5217.4333     
     5      (1,1,5)              -5217.4348     
     6      (1,1,6)              -5217.4365     
     7      (1,1,7)              -5217.4385     
     8      (1,1,8)              -5217.4413     
     9      (1,1,9)              -5217.4438     
     10     (1,21,1)             -5217.4412     
     11     (1,21,2)             -5217.4380     
     12     (1,21,3)             -5217.4349     
     13     (1,21,4)             -5217.4329     
     14     (1,21,5)             -5217.4311     
     15     (1,21,6)             -5217.4296     
     16     (1,21,7)             -5217.4293     
     17     (1,21,8)             -5217.4323     
     18     (1,21,9)             -5217.4373     
 -----------------------------------------------




 HEAD WILL BE SAVED ON UNIT 1016 AT END OF TIME STEP    4, STRESS PERIOD   13


  VOLUME BUDGET FOR ENTIRE MODEL AT END OF TIME STEP    4, STRESS PERIOD  13
  ---------------------------------------------------------------------------------------------------

     CUMULATIVE VOLUME      L**3       RATES FOR THIS TIME STEP      L**3/T          PACKAGE NAME    
     ------------------                 ------------------------                     ----------------

           IN:                                      IN:
           ---                                      ---
              STO-SS =    16223078.5227                STO-SS =       49680.0976     STORAGE                          
              STO-SY =      488480.9319                STO-SY =        1483.7380     STORAGE                          
                 WEL =           0.0000                   WEL =           0.0000     WEL-1                            
                RCHA =    33242138.9157                  RCHA =       42750.0000     RCH-1                            
                 CHD =           0.0000                   CHD =           0.0000     CHD-FROM-IBOUND                  

            TOTAL IN =    49953698.3703              TOTAL IN =       93913.8356

          OUT:                                     OUT:
          ----                                     ----
              STO-SS =    16442562.6098                STO-SS =           0.0000     STORAGE                          
              STO-SY =      491261.5239                STO-SY =           0.0000     STORAGE                          
                 WEL =           0.0000                   WEL =           0.0000     WEL-1                            
                RCHA =           0.0000                  RCHA =           0.0000     RCH-1                            
                 CHD =    33019878.2293                   CHD =       93913.8355     CHD-FROM-IBOUND                  

           TOTAL OUT =    49953702.3629             TOTAL OUT =       93913.8355

            IN - OUT =          -3.9926              IN - OUT =       6.1773E-05

 PERCENT DISCREPANCY =          -0.00     PERCENT DISCREPANCY =           0.00




         TIME SUMMARY AT END OF TIME STEP    4 IN STRESS PERIOD   13
                    SECONDS     MINUTES      HOURS       DAYS        YEARS
                    -----------------------------------------------------------
   TIME STEP LENGTH 2.80517E+05  4675.3      77.921      3.2467     8.88905E-03
 STRESS PERIOD TIME 8.71421E+05  14524.      242.06      10.086     2.76137E-02
         TOTAL TIME 2.98154E+07 4.96924E+05  8282.1      345.09     0.94479    


end timestep


start timestep kper="13" kstp="5" mode="normal"

 UBDSV1 SAVING     FLOW-JA-FACE ON UNIT   1015 AT TIME STEP      5, STRESS PERIOD     13
 UBDSV06 SAVING              WEL IN MODEL MUMODEL          PACKAGE MUMODEL         CONNECTED TO MODEL MUMODEL          PACKAGE WEL-1            ON UNIT   1015 AT TIME STEP      5, STRESS PERIOD     13
 UBDSV06 SAVING             RCHA IN MODEL MUMODEL          PACKAGE MUMODEL         CONNECTED TO MODEL MUMODEL          PACKAGE RCH-1            ON UNIT   1015 AT TIME STEP      5, STRESS PERIOD     13

 WEL PACKAGE (WEL-1) FLOW RATES   PERIOD     13   STEP        5
 -----------------------------------------------
   NUMBER   CELLID                    RATE      
 -----------------------------------------------
     1      (1,5,5)               0.0000000     
     2      (1,11,5)              0.0000000     
     3      (1,5,5)               0.0000000     
 -----------------------------------------------




 CHD PACKAGE (CHD-FROM-IBOUND) FLOW RATES   PERIOD     13   STEP        5
 -----------------------------------------------
   NUMBER   CELLID                    RATE      
 -----------------------------------------------
     1      (1,1,1)              -5215.6176     
     2      (1,1,2)              -5215.6152     
     3      (1,1,3)              -5215.6145     
     4      (1,1,4)              -5215.6154     
     5      (1,1,5)              -5215.6170     
     6      (1,1,6)              -5215.6186     
     7      (1,1,7)              -5215.6206     
     8      (1,1,8)              -5215.6234     
     9      (1,1,9)              -5215.6258     
     10     (1,21,1)             -5215.6232     
     11     (1,21,2)             -5215.6201     
     12     (1,21,3)             -5215.6170     
     13     (1,21,4)             -5215.6150     
     14     (1,21,5)             -5215.6133     
     15     (1,21,6)             -5215.6117     
     16     (1,21,7)             -5215.6115     
     17     (1,21,8)             -5215.6145     
     18     (1,21,9)             -5215.6194     
 -----------------------------------------------




 HEAD WILL BE SAVED ON UNIT 1016 AT END OF TIME STEP    5, STRESS PERIOD   13


  VOLUME BUDGET FOR ENTIRE MODEL AT END OF TIME STEP    5, STRESS PERIOD  13
  ---------------------------------------------------------------------------------------------------

     CUMULATIVE VOLUME      L**3       RATES FOR THIS TIME STEP      L**3/T          PACKAGE NAME    
     ------------------                 ------------------------                     ----------------

           IN:                                      IN:
           ---                                      ---
              STO-SS =    16416512.7910                STO-SS =       49648.5526     STORAGE                          
              STO-SY =      494257.0956                STO-SY =        1482.5613     STORAGE                          
                 WEL =           0.0000                   WEL =           0.0000     WEL-1                            
                RCHA =    33408695.9358                  RCHA =       42750.0000     RCH-1                            
                 CHD =           0.0000                   CHD =           0.0000     CHD-FROM-IBOUND                  

            TOTAL IN =    50319465.8225              TOTAL IN =       93881.1139

          OUT:                                     OUT:
          ----                                     ----
              STO-SS =    16442562.6098                STO-SS =           0.0000     STORAGE                          
              STO-SY =      491261.5239                STO-SY =           0.0000     STORAGE                          
                 WEL =           0.0000                   WEL =           0.0000     WEL-1                            
                RCHA =           0.0000                  RCHA =           0.0000     RCH-1                            
                 CHD =    33385645.6811                   CHD =       93881.1138     CHD-FROM-IBOUND                  

           TOTAL OUT =    50319469.8147             TOTAL OUT =       93881.1138

            IN - OUT =          -3.9922              IN - OUT =       1.0371E-04

 PERCENT DISCREPANCY =          -0.00     PERCENT DISCREPANCY =           0.00




         TIME SUMMARY AT END OF TIME STEP    5 IN STRESS PERIOD   13
                    SECONDS     MINUTES      HOURS       DAYS        YEARS
                    -----------------------------------------------------------
   TIME STEP LENGTH 3.36621E+05  5610.3      93.506      3.8961     1.06669E-02
 STRESS PERIOD TIME 1.20804E+06  20134.      335.57      13.982     3.82805E-02
         TOTAL TIME 3.01520E+07 5.02534E+05  8375.6      348.98     0.95546    


end timestep


start timestep kper="13" kstp="6" mode="normal"

 UBDSV1 SAVING     FLOW-JA-FACE ON UNIT   1015 AT TIME STEP      6, STRESS PERIOD     13
 UBDSV06 SAVING              WEL IN MODEL MUMODEL          PACKAGE MUMODEL         CONNECTED TO MODEL MUMODEL          PACKAGE WEL-1            ON UNIT   1015 AT TIME STEP      6, STRESS PERIOD     13
 UBDSV06 SAVING             RCHA IN MODEL MUMODEL          PACKAGE MUMODEL         CONNECTED TO MODEL MUMODEL          PACKAGE RCH-1            ON UNIT   1015 AT TIME STEP      6, STRESS PERIOD     13

 WEL PACKAGE (WEL-1) FLOW RATES   PERIOD     13   STEP        6
 -----------------------------------------------
   NUMBER   CELLID                    RATE      
 -----------------------------------------------
     1      (1,5,5)               0.0000000     
     2      (1,11,5)              0.0000000     
     3      (1,5,5)               0.0000000     
 -----------------------------------------------




 CHD PACKAGE (CHD-FROM-IBOUND) FLOW RATES   PERIOD     13   STEP        6
 -----------------------------------------------
   NUMBER   CELLID                    RATE      
 -----------------------------------------------
     1      (1,1,1)              -5213.4496     
     2      (1,1,2)              -5213.4473     
     3      (1,1,3)              -5213.4465     
     4      (1,1,4)              -5213.4475     
     5      (1,1,5)              -5213.4490     
     6      (1,1,6)              -5213.4506     
     7      (1,1,7)              -5213.4526     
     8      (1,1,8)              -5213.4553     
     9      (1,1,9)              -5213.4578     
     10     (1,21,1)             -5213.4551     
     11     (1,21,2)             -5213.4520     
     12     (1,21,3)             -5213.4490     
     13     (1,21,4)             -5213.4470     
     14     (1,21,5)             -5213.4453     
     15     (1,21,6)             -5213.4438     
     16     (1,21,7)             -5213.4436     
     17     (1,21,8)             -5213.4465     
     18     (1,21,9)             -5213.4514     
 -----------------------------------------------




 HEAD WILL BE SAVED ON UNIT 1016 AT END OF TIME STEP    6, STRESS PERIOD   13


  VOLUME BUDGET FOR ENTIRE MODEL AT END OF TIME STEP    6, STRESS PERIOD  13
  ---------------------------------------------------------------------------------------------------

     CUMULATIVE VOLUME      L**3       RATES FOR THIS TIME STEP      L**3/T          PACKAGE NAME    
     ------------------                 ------------------------                     ----------------

           IN:                                      IN:
           ---                                      ---
              STO-SS =    16648458.0197                STO-SS =       49610.9306     STORAGE                          
              STO-SY =      501181.9382                STO-SY =        1481.1595     STORAGE                          
                 WEL =           0.0000                   WEL =           0.0000     WEL-1                            
                RCHA =    33608564.3601                  RCHA =       42750.0000     RCH-1                            
                 CHD =           0.0000                   CHD =           0.0000     CHD-FROM-IBOUND                  

            TOTAL IN =    50758204.3180              TOTAL IN =       93842.0901

          OUT:                                     OUT:
          ----                                     ----
              STO-SS =    16442562.6098                STO-SS =           0.0000     STORAGE                          
              STO-SY =      491261.5239                STO-SY =           0.0000     STORAGE                          
                 WEL =           0.0000                   WEL =           0.0000     WEL-1                            
                RCHA =           0.0000                  RCHA =           0.0000     RCH-1                            
                 CHD =    33824384.1758                   CHD =       93842.0900     CHD-FROM-IBOUND                  

           TOTAL OUT =    50758208.3094             TOTAL OUT =       93842.0900

            IN - OUT =          -3.9914              IN - OUT =       1.7362E-04

 PERCENT DISCREPANCY =          -0.00     PERCENT DISCREPANCY =           0.00




         TIME SUMMARY AT END OF TIME STEP    6 IN STRESS PERIOD   13
                    SECONDS     MINUTES      HOURS       DAYS        YEARS
                    -----------------------------------------------------------
   TIME STEP LENGTH 4.03945E+05  6732.4      112.21      4.6753     1.28002E-02
 STRESS PERIOD TIME 1.61199E+06  26866.      447.77      18.657     5.10808E-02
         TOTAL TIME 3.05560E+07 5.09266E+05  8487.8      353.66     0.96826    


end timestep


start timestep kper="13" kstp="7" mode="normal"

 UBDSV1 SAVING     FLOW-JA-FACE ON UNIT   1015 AT TIME STEP      7, STRESS PERIOD     13
 UBDSV06 SAVING              WEL IN MODEL MUMODEL          PACKAGE MUMODEL         CONNECTED TO MODEL MUMODEL          PACKAGE WEL-1            ON UNIT   1015 AT TIME STEP      7, STRESS PERIOD     13
 UBDSV06 SAVING             RCHA IN MODEL MUMODEL          PACKAGE MUMODEL         CONNECTED TO MODEL MUMODEL          PACKAGE RCH-1            ON UNIT   1015 AT TIME STEP      7, STRESS PERIOD     13

 WEL PACKAGE (WEL-1) FLOW RATES   PERIOD     13   STEP        7
 -----------------------------------------------
   NUMBER   CELLID                    RATE      
 -----------------------------------------------
     1      (1,5,5)               0.0000000     
     2      (1,11,5)              0.0000000     
     3      (1,5,5)               0.0000000     
 -----------------------------------------------




 CHD PACKAGE (CHD-FROM-IBOUND) FLOW RATES   PERIOD     13   STEP        7
 -----------------------------------------------
   NUMBER   CELLID                    RATE      
 -----------------------------------------------
     1      (1,1,1)              -5210.8671     
     2      (1,1,2)              -5210.8648     
     3      (1,1,3)              -5210.8640     
     4      (1,1,4)              -5210.8650     
     5      (1,1,5)              -5210.8665     
     6      (1,1,6)              -5210.8681     
     7      (1,1,7)              -5210.8701     
     8      (1,1,8)              -5210.8728     
     9      (1,1,9)              -5210.8752     
     10     (1,21,1)             -5210.8725     
     11     (1,21,2)             -5210.8695     
     12     (1,21,3)             -5210.8665     
     13     (1,21,4)             -5210.8645     
     14     (1,21,5)             -5210.8628     
     15     (1,21,6)             -5210.8613     
     16     (1,21,7)             -5210.8612     
     17     (1,21,8)             -5210.8641     
     18     (1,21,9)             -5210.8689     
 -----------------------------------------------




 HEAD WILL BE SAVED ON UNIT 1016 AT END OF TIME STEP    7, STRESS PERIOD   13


  VOLUME BUDGET FOR ENTIRE MODEL AT END OF TIME STEP    7, STRESS PERIOD  13
  ---------------------------------------------------------------------------------------------------

     CUMULATIVE VOLUME      L**3       RATES FOR THIS TIME STEP      L**3/T          PACKAGE NAME    
     ------------------                 ------------------------                     ----------------

           IN:                                      IN:
           ---                                      ---
              STO-SS =    16926540.8533                STO-SS =       49566.1132     STORAGE                          
              STO-SY =      509482.3926                STO-SY =        1479.4918     STORAGE                          
                 WEL =           0.0000                   WEL =           0.0000     WEL-1                            
                RCHA =    33848406.4691                  RCHA =       42750.0000     RCH-1                            
                 CHD =           0.0000                   CHD =           0.0000     CHD-FROM-IBOUND                  

            TOTAL IN =    51284429.7150              TOTAL IN =       93795.6050

          OUT:                                     OUT:
          ----                                     ----
              STO-SS =    16442562.6098                STO-SS =           0.0000     STORAGE                          
              STO-SY =      491261.5239                STO-SY =           0.0000     STORAGE                          
                 WEL =           0.0000                   WEL =           0.0000     WEL-1                            
                RCHA =           0.0000                  RCHA =           0.0000     RCH-1                            
                 CHD =    34350609.5711                   CHD =       93795.6047     CHD-FROM-IBOUND                  

           TOTAL OUT =    51284433.7048             TOTAL OUT =       93795.6047

            IN - OUT =          -3.9898              IN - OUT =       2.9048E-04

 PERCENT DISCREPANCY =          -0.00     PERCENT DISCREPANCY =           0.00




         TIME SUMMARY AT END OF TIME STEP    7 IN STRESS PERIOD   13
                    SECONDS     MINUTES      HOURS       DAYS        YEARS
                    -----------------------------------------------------------
   TIME STEP LENGTH 4.84734E+05  8078.9      134.65      5.6103     1.53603E-02
 STRESS PERIOD TIME 2.09672E+06  34945.      582.42      24.268     6.64410E-02
         TOTAL TIME 3.10407E+07 5.17345E+05  8622.4      359.27     0.98362    


end timestep


start timestep kper="13" kstp="8" mode="normal"

 UBDSV1 SAVING     FLOW-JA-FACE ON UNIT   1015 AT TIME STEP      8, STRESS PERIOD     13
 UBDSV06 SAVING              WEL IN MODEL MUMODEL          PACKAGE MUMODEL         CONNECTED TO MODEL MUMODEL          PACKAGE WEL-1            ON UNIT   1015 AT TIME STEP      8, STRESS PERIOD     13
 UBDSV06 SAVING             RCHA IN MODEL MUMODEL          PACKAGE MUMODEL         CONNECTED TO MODEL MUMODEL          PACKAGE RCH-1            ON UNIT   1015 AT TIME STEP      8, STRESS PERIOD     13

 WEL PACKAGE (WEL-1) FLOW RATES   PERIOD     13   STEP        8
 -----------------------------------------------
   NUMBER   CELLID                    RATE      
 -----------------------------------------------
     1      (1,5,5)               0.0000000     
     2      (1,11,5)              0.0000000     
     3      (1,5,5)               0.0000000     
 -----------------------------------------------




 CHD PACKAGE (CHD-FROM-IBOUND) FLOW RATES   PERIOD     13   STEP        8
 -----------------------------------------------
   NUMBER   CELLID                    RATE      
 -----------------------------------------------
     1      (1,1,1)              -5207.7950     
     2      (1,1,2)              -5207.7928     
     3      (1,1,3)              -5207.7920     
     4      (1,1,4)              -5207.7929     
     5      (1,1,5)              -5207.7944     
     6      (1,1,6)              -5207.7960     
     7      (1,1,7)              -5207.7980     
     8      (1,1,8)              -5207.8007     
     9      (1,1,9)              -5207.8030     
     10     (1,21,1)             -5207.8003     
     11     (1,21,2)             -5207.7973     
     12     (1,21,3)             -5207.7944     
     13     (1,21,4)             -5207.7924     
     14     (1,21,5)             -5207.7907     
     15     (1,21,6)             -5207.7893     
     16     (1,21,7)             -5207.7892     
     17     (1,21,8)             -5207.7921     
     18     (1,21,9)             -5207.7968     
 -----------------------------------------------




 HEAD WILL BE SAVED ON UNIT 1016 AT END OF TIME STEP    8, STRESS PERIOD   13


  VOLUME BUDGET FOR ENTIRE MODEL AT END OF TIME STEP    8, STRESS PERIOD  13
  ---------------------------------------------------------------------------------------------------

     CUMULATIVE VOLUME      L**3       RATES FOR THIS TIME STEP      L**3/T          PACKAGE NAME    
     ------------------                 ------------------------                     ----------------

           IN:                                      IN:
           ---                                      ---
              STO-SS =    17259881.3075                STO-SS =       49512.7971     STORAGE                          
              STO-SY =      519429.6006                STO-SY =        1477.5107     STORAGE                          
                 WEL =           0.0000                   WEL =           0.0000     WEL-1                            
                RCHA =    34136217.0000                  RCHA =       42750.0000     RCH-1                            
                 CHD =           0.0000                   CHD =           0.0000     CHD-FROM-IBOUND                  

            TOTAL IN =    51915527.9081              TOTAL IN =       93740.3078

          OUT:                                     OUT:
          ----                                     ----
              STO-SS =    16442562.6098                STO-SS =           0.0000     STORAGE                          
              STO-SY =      491261.5239                STO-SY =           0.0000     STORAGE                          
                 WEL =           0.0000                   WEL =           0.0000     WEL-1                            
                RCHA =           0.0000                  RCHA =           0.0000     RCH-1                            
                 CHD =    34981707.7610                   CHD =       93740.3073     CHD-FROM-IBOUND                  

           TOTAL OUT =    51915531.8946             TOTAL OUT =       93740.3073

            IN - OUT =          -3.9865              IN - OUT =       4.8616E-04

 PERCENT DISCREPANCY =          -0.00     PERCENT DISCREPANCY =           0.00




         TIME SUMMARY AT END OF TIME STEP    8 IN STRESS PERIOD   13
                    SECONDS     MINUTES      HOURS       DAYS        YEARS
                    -----------------------------------------------------------
   TIME STEP LENGTH 5.81680E+05  9694.7      161.58      6.7324     1.84323E-02
 STRESS PERIOD TIME 2.67840E+06  44640.      744.00      31.000     8.48734E-02
         TOTAL TIME 3.16224E+07 5.27040E+05  8784.0      366.00      1.0021    


end timestep


start timestep kper="14" kstp="1" mode="normal"


 OUTPUT CONTROL FOR STRESS PERIOD 14 IS REPEATED USING SETTINGS FROM A PREVIOUS STRESS PERIOD.


 STRESS PERIOD 14 IS TRANSIENT

 --------------------------------------------------------------------
  WEL NO.    LAYER    ROW     COL     STRESS RATE         IFACE      
 --------------------------------------------------------------------
     1         1       5       5    -40000.0000       0.00000000     
     2         1      11       5     0.00000000       0.00000000     
     3         1       5       5     0.00000000       0.00000000     
 --------------------------------------------------------------------



 REUSING CHDS FROM LAST STRESS PERIOD
 UBDSV1 SAVING     FLOW-JA-FACE ON UNIT   1015 AT TIME STEP      1, STRESS PERIOD     14
 UBDSV06 SAVING              WEL IN MODEL MUMODEL          PACKAGE MUMODEL         CONNECTED TO MODEL MUMODEL          PACKAGE WEL-1            ON UNIT   1015 AT TIME STEP      1, STRESS PERIOD     14
 UBDSV06 SAVING             RCHA IN MODEL MUMODEL          PACKAGE MUMODEL         CONNECTED TO MODEL MUMODEL          PACKAGE RCH-1            ON UNIT   1015 AT TIME STEP      1, STRESS PERIOD     14

 WEL PACKAGE (WEL-1) FLOW RATES   PERIOD     14   STEP        1
 -----------------------------------------------
   NUMBER   CELLID                    RATE      
 -----------------------------------------------
     1      (1,5,5)              -40000.000     
     2      (1,11,5)              0.0000000     
     3      (1,5,5)               0.0000000     
 -----------------------------------------------




 CHD PACKAGE (CHD-FROM-IBOUND) FLOW RATES   PERIOD     14   STEP        1
 -----------------------------------------------
   NUMBER   CELLID                    RATE      
 -----------------------------------------------
     1      (1,1,1)              -5207.8131     
     2      (1,1,2)              -5207.8109     
     3      (1,1,3)              -5207.8101     
     4      (1,1,4)              -5207.8110     
     5      (1,1,5)              -5207.8125     
     6      (1,1,6)              -5207.8141     
     7      (1,1,7)              -5207.8161     
     8      (1,1,8)              -5207.8187     
     9      (1,1,9)              -5207.8211     
     10     (1,21,1)             -5207.8184     
     11     (1,21,2)             -5207.8154     
     12     (1,21,3)             -5207.8125     
     13     (1,21,4)             -5207.8105     
     14     (1,21,5)             -5207.8088     
     15     (1,21,6)             -5207.8074     
     16     (1,21,7)             -5207.8073     
     17     (1,21,8)             -5207.8102     
     18     (1,21,9)             -5207.8149     
 -----------------------------------------------




 HEAD WILL BE SAVED ON UNIT 1016 AT END OF TIME STEP    1, STRESS PERIOD   14


  VOLUME BUDGET FOR ENTIRE MODEL AT END OF TIME STEP    1, STRESS PERIOD  14
  ---------------------------------------------------------------------------------------------------

     CUMULATIVE VOLUME      L**3       RATES FOR THIS TIME STEP      L**3/T          PACKAGE NAME    
     ------------------                 ------------------------                     ----------------

           IN:                                      IN:
           ---                                      ---
              STO-SS =    17348062.3013                STO-SS =       46932.4418     STORAGE                          
              STO-SY =      522064.2948                STO-SY =        1402.2595     STORAGE                          
                 WEL =           0.0000                   WEL =           0.0000     WEL-1                            
                RCHA =    34296862.2741                  RCHA =       85500.0000     RCH-1                            
                 CHD =           0.0000                   CHD =           0.0000     CHD-FROM-IBOUND                  

            TOTAL IN =    52166988.8703              TOTAL IN =      133834.7012

          OUT:                                     OUT:
          ----                                     ----
              STO-SS =    16442732.4802                STO-SS =          90.4098     STORAGE                          
              STO-SY =      491268.3980                STO-SY =           3.6586     STORAGE                          
                 WEL =       75155.6838                   WEL =       40000.0000     WEL-1                            
                RCHA =           0.0000                  RCHA =           0.0000     RCH-1                            
                 CHD =    35157836.2949                   CHD =       93740.6328     CHD-FROM-IBOUND                  

           TOTAL OUT =    52166992.8569             TOTAL OUT =      133834.7013

            IN - OUT =          -3.9866              IN - OUT =      -7.7102E-05

 PERCENT DISCREPANCY =          -0.00     PERCENT DISCREPANCY =          -0.00




         TIME SUMMARY AT END OF TIME STEP    1 IN STRESS PERIOD   14
                    SECONDS     MINUTES      HOURS       DAYS        YEARS
                    -----------------------------------------------------------
   TIME STEP LENGTH 1.62336E+05  2705.6      45.093      1.8789     5.14413E-03
 STRESS PERIOD TIME 1.62336E+05  2705.6      45.093      1.8789     5.14413E-03
         TOTAL TIME 3.17847E+07 5.29746E+05  8829.1      367.88      1.0072    


end timestep


start timestep kper="14" kstp="2" mode="normal"

 UBDSV1 SAVING     FLOW-JA-FACE ON UNIT   1015 AT TIME STEP      2, STRESS PERIOD     14
 UBDSV06 SAVING              WEL IN MODEL MUMODEL          PACKAGE MUMODEL         CONNECTED TO MODEL MUMODEL          PACKAGE WEL-1            ON UNIT   1015 AT TIME STEP      2, STRESS PERIOD     14
 UBDSV06 SAVING             RCHA IN MODEL MUMODEL          PACKAGE MUMODEL         CONNECTED TO MODEL MUMODEL          PACKAGE RCH-1            ON UNIT   1015 AT TIME STEP      2, STRESS PERIOD     14

 WEL PACKAGE (WEL-1) FLOW RATES   PERIOD     14   STEP        2
 -----------------------------------------------
   NUMBER   CELLID                    RATE      
 -----------------------------------------------
     1      (1,5,5)              -40000.000     
     2      (1,11,5)              0.0000000     
     3      (1,5,5)               0.0000000     
 -----------------------------------------------




 CHD PACKAGE (CHD-FROM-IBOUND) FLOW RATES   PERIOD     14   STEP        2
 -----------------------------------------------
   NUMBER   CELLID                    RATE      
 -----------------------------------------------
     1      (1,1,1)              -5207.8337     
     2      (1,1,2)              -5207.8315     
     3      (1,1,3)              -5207.8308     
     4      (1,1,4)              -5207.8317     
     5      (1,1,5)              -5207.8331     
     6      (1,1,6)              -5207.8347     
     7      (1,1,7)              -5207.8367     
     8      (1,1,8)              -5207.8394     
     9      (1,1,9)              -5207.8417     
     10     (1,21,1)             -5207.8390     
     11     (1,21,2)             -5207.8360     
     12     (1,21,3)             -5207.8331     
     13     (1,21,4)             -5207.8311     
     14     (1,21,5)             -5207.8295     
     15     (1,21,6)             -5207.8280     
     16     (1,21,7)             -5207.8280     
     17     (1,21,8)             -5207.8309     
     18     (1,21,9)             -5207.8355     
 -----------------------------------------------




 HEAD WILL BE SAVED ON UNIT 1016 AT END OF TIME STEP    2, STRESS PERIOD   14


  VOLUME BUDGET FOR ENTIRE MODEL AT END OF TIME STEP    2, STRESS PERIOD  14
  ---------------------------------------------------------------------------------------------------

     CUMULATIVE VOLUME      L**3       RATES FOR THIS TIME STEP      L**3/T          PACKAGE NAME    
     ------------------                 ------------------------                     ----------------

           IN:                                      IN:
           ---                                      ---
              STO-SS =    17453860.6272                STO-SS =       46924.0739     STORAGE                          
              STO-SY =      525232.7506                STO-SY =        1405.2855     STORAGE                          
                 WEL =           0.0000                   WEL =           0.0000     WEL-1                            
                RCHA =    34489636.6030                  RCHA =       85500.0000     RCH-1                            
                 CHD =           0.0000                   CHD =           0.0000     CHD-FROM-IBOUND                  

            TOTAL IN =    52468729.9808              TOTAL IN =      133829.3594

          OUT:                                     OUT:
          ----                                     ----
              STO-SS =    16442923.9434                STO-SS =          84.9185     STORAGE                          
              STO-SY =      491276.1460                STO-SY =           3.4364     STORAGE                          
                 WEL =      165342.5043                   WEL =       40000.0000     WEL-1                            
                RCHA =           0.0000                  RCHA =           0.0000     RCH-1                            
                 CHD =    35369191.3740                   CHD =       93741.0046     CHD-FROM-IBOUND                  

           TOTAL OUT =    52468733.9678             TOTAL OUT =      133829.3596

            IN - OUT =          -3.9870              IN - OUT =      -1.3543E-04

 PERCENT DISCREPANCY =          -0.00     PERCENT DISCREPANCY =          -0.00




         TIME SUMMARY AT END OF TIME STEP    2 IN STRESS PERIOD   14
                    SECONDS     MINUTES      HOURS       DAYS        YEARS
                    -----------------------------------------------------------
   TIME STEP LENGTH 1.94804E+05  3246.7      54.112      2.2547     6.17295E-03
 STRESS PERIOD TIME 3.57140E+05  5952.3      99.206      4.1336     1.13171E-02
         TOTAL TIME 3.19795E+07 5.32992E+05  8883.2      370.13      1.0134    


end timestep


start timestep kper="14" kstp="3" mode="normal"

 UBDSV1 SAVING     FLOW-JA-FACE ON UNIT   1015 AT TIME STEP      3, STRESS PERIOD     14
 UBDSV06 SAVING              WEL IN MODEL MUMODEL          PACKAGE MUMODEL         CONNECTED TO MODEL MUMODEL          PACKAGE WEL-1            ON UNIT   1015 AT TIME STEP      3, STRESS PERIOD     14
 UBDSV06 SAVING             RCHA IN MODEL MUMODEL          PACKAGE MUMODEL         CONNECTED TO MODEL MUMODEL          PACKAGE RCH-1            ON UNIT   1015 AT TIME STEP      3, STRESS PERIOD     14

 WEL PACKAGE (WEL-1) FLOW RATES   PERIOD     14   STEP        3
 -----------------------------------------------
   NUMBER   CELLID                    RATE      
 -----------------------------------------------
     1      (1,5,5)              -40000.000     
     2      (1,11,5)              0.0000000     
     3      (1,5,5)               0.0000000     
 -----------------------------------------------




 CHD PACKAGE (CHD-FROM-IBOUND) FLOW RATES   PERIOD     14   STEP        3
 -----------------------------------------------
   NUMBER   CELLID                    RATE      
 -----------------------------------------------
     1      (1,1,1)              -5207.8566     
     2      (1,1,2)              -5207.8545     
     3      (1,1,3)              -5207.8537     
     4      (1,1,4)              -5207.8546     
     5      (1,1,5)              -5207.8558     
     6      (1,1,6)              -5207.8576     
     7      (1,1,7)              -5207.8596     
     8      (1,1,8)              -5207.8622     
     9      (1,1,9)              -5207.8646     
     10     (1,21,1)             -5207.8619     
     11     (1,21,2)             -5207.8589     
     12     (1,21,3)             -5207.8560     
     13     (1,21,4)             -5207.8540     
     14     (1,21,5)             -5207.8524     
     15     (1,21,6)             -5207.8510     
     16     (1,21,7)             -5207.8509     
     17     (1,21,8)             -5207.8538     
     18     (1,21,9)             -5207.8584     
 -----------------------------------------------




 HEAD WILL BE SAVED ON UNIT 1016 AT END OF TIME STEP    3, STRESS PERIOD   14


  VOLUME BUDGET FOR ENTIRE MODEL AT END OF TIME STEP    3, STRESS PERIOD  14
  ---------------------------------------------------------------------------------------------------

     CUMULATIVE VOLUME      L**3       RATES FOR THIS TIME STEP      L**3/T          PACKAGE NAME    
     ------------------                 ------------------------                     ----------------

           IN:                                      IN:
           ---                                      ---
              STO-SS =    17580792.0635                STO-SS =       46914.2592     STORAGE                          
              STO-SY =      529044.2605                STO-SY =        1408.7461     STORAGE                          
                 WEL =           0.0000                   WEL =           0.0000     WEL-1                            
                RCHA =    34720965.7977                  RCHA =       85500.0000     RCH-1                            
                 CHD =           0.0000                   CHD =           0.0000     CHD-FROM-IBOUND                  

            TOTAL IN =    52830802.1217              TOTAL IN =      133823.0053

          OUT:                                     OUT:
          ----                                     ----
              STO-SS =    16443136.1050                STO-SS =          78.4156     STORAGE                          
              STO-SY =      491284.7316                STO-SY =           3.1733     STORAGE                          
                 WEL =      273566.6890                   WEL =       40000.0000     WEL-1                            
                RCHA =           0.0000                  RCHA =           0.0000     RCH-1                            
                 CHD =    35622818.5837                   CHD =       93741.4167     CHD-FROM-IBOUND                  

           TOTAL OUT =    52830806.1092             TOTAL OUT =      133823.0055

            IN - OUT =          -3.9876              IN - OUT =      -2.2726E-04

 PERCENT DISCREPANCY =          -0.00     PERCENT DISCREPANCY =          -0.00




         TIME SUMMARY AT END OF TIME STEP    3 IN STRESS PERIOD   14
                    SECONDS     MINUTES      HOURS       DAYS        YEARS
                    -----------------------------------------------------------
   TIME STEP LENGTH 2.33764E+05  3896.1      64.935      2.7056     7.40754E-03
 STRESS PERIOD TIME 5.90904E+05  9848.4      164.14      6.8392     1.87246E-02
         TOTAL TIME 3.22133E+07 5.36888E+05  8948.1      372.84      1.0208    


end timestep


start timestep kper="14" kstp="4" mode="normal"

 UBDSV1 SAVING     FLOW-JA-FACE ON UNIT   1015 AT TIME STEP      4, STRESS PERIOD     14
 UBDSV06 SAVING              WEL IN MODEL MUMODEL          PACKAGE MUMODEL         CONNECTED TO MODEL MUMODEL          PACKAGE WEL-1            ON UNIT   1015 AT TIME STEP      4, STRESS PERIOD     14
 UBDSV06 SAVING             RCHA IN MODEL MUMODEL          PACKAGE MUMODEL         CONNECTED TO MODEL MUMODEL          PACKAGE RCH-1            ON UNIT   1015 AT TIME STEP      4, STRESS PERIOD     14

 WEL PACKAGE (WEL-1) FLOW RATES   PERIOD     14   STEP        4
 -----------------------------------------------
   NUMBER   CELLID                    RATE      
 -----------------------------------------------
     1      (1,5,5)              -40000.000     
     2      (1,11,5)              0.0000000     
     3      (1,5,5)               0.0000000     
 -----------------------------------------------




 CHD PACKAGE (CHD-FROM-IBOUND) FLOW RATES   PERIOD     14   STEP        4
 -----------------------------------------------
   NUMBER   CELLID                    RATE      
 -----------------------------------------------
     1      (1,1,1)              -5207.8814     
     2      (1,1,2)              -5207.8793     
     3      (1,1,3)              -5207.8785     
     4      (1,1,4)              -5207.8794     
     5      (1,1,5)              -5207.8802     
     6      (1,1,6)              -5207.8824     
     7      (1,1,7)              -5207.8844     
     8      (1,1,8)              -5207.8870     
     9      (1,1,9)              -5207.8894     
     10     (1,21,1)             -5207.8866     
     11     (1,21,2)             -5207.8837     
     12     (1,21,3)             -5207.8808     
     13     (1,21,4)             -5207.8788     
     14     (1,21,5)             -5207.8772     
     15     (1,21,6)             -5207.8758     
     16     (1,21,7)             -5207.8758     
     17     (1,21,8)             -5207.8787     
     18     (1,21,9)             -5207.8832     
 -----------------------------------------------




 HEAD WILL BE SAVED ON UNIT 1016 AT END OF TIME STEP    4, STRESS PERIOD   14


  VOLUME BUDGET FOR ENTIRE MODEL AT END OF TIME STEP    4, STRESS PERIOD  14
  ---------------------------------------------------------------------------------------------------

     CUMULATIVE VOLUME      L**3       RATES FOR THIS TIME STEP      L**3/T          PACKAGE NAME    
     ------------------                 ------------------------                     ----------------

           IN:                                      IN:
           ---                                      ---
              STO-SS =    17733072.5323                STO-SS =       46902.7847     STORAGE                          
              STO-SY =      533630.7993                STO-SY =        1412.6660     STORAGE                          
                 WEL =           0.0000                   WEL =           0.0000     WEL-1                            
                RCHA =    34998560.8313                  RCHA =       85500.0000     RCH-1                            
                 CHD =           0.0000                   CHD =           0.0000     CHD-FROM-IBOUND                  

            TOTAL IN =    53265264.1630              TOTAL IN =      133815.4507

          OUT:                                     OUT:
          ----                                     ----
              STO-SS =    16443365.7340                STO-SS =          70.7263     STORAGE                          
              STO-SY =      491294.0240                STO-SY =           2.8621     STORAGE                          
                 WEL =      403435.7106                   WEL =       40000.0000     WEL-1                            
                RCHA =           0.0000                  RCHA =           0.0000     RCH-1                            
                 CHD =    35927172.6832                   CHD =       93741.8626     CHD-FROM-IBOUND                  

           TOTAL OUT =    53265268.1518             TOTAL OUT =      133815.4511

            IN - OUT =          -3.9888              IN - OUT =      -3.7569E-04

 PERCENT DISCREPANCY =          -0.00     PERCENT DISCREPANCY =          -0.00




         TIME SUMMARY AT END OF TIME STEP    4 IN STRESS PERIOD   14
                    SECONDS     MINUTES      HOURS       DAYS        YEARS
                    -----------------------------------------------------------
   TIME STEP LENGTH 2.80517E+05  4675.3      77.921      3.2467     8.88905E-03
 STRESS PERIOD TIME 8.71421E+05  14524.      242.06      10.086     2.76137E-02
         TOTAL TIME 3.24938E+07 5.41564E+05  9026.1      376.09      1.0297    


end timestep


start timestep kper="14" kstp="5" mode="normal"

 UBDSV1 SAVING     FLOW-JA-FACE ON UNIT   1015 AT TIME STEP      5, STRESS PERIOD     14
 UBDSV06 SAVING              WEL IN MODEL MUMODEL          PACKAGE MUMODEL         CONNECTED TO MODEL MUMODEL          PACKAGE WEL-1            ON UNIT   1015 AT TIME STEP      5, STRESS PERIOD     14
 UBDSV06 SAVING             RCHA IN MODEL MUMODEL          PACKAGE MUMODEL         CONNECTED TO MODEL MUMODEL          PACKAGE RCH-1            ON UNIT   1015 AT TIME STEP      5, STRESS PERIOD     14

 WEL PACKAGE (WEL-1) FLOW RATES   PERIOD     14   STEP        5
 -----------------------------------------------
   NUMBER   CELLID                    RATE      
 -----------------------------------------------
     1      (1,5,5)              -40000.000     
     2      (1,11,5)              0.0000000     
     3      (1,5,5)               0.0000000     
 -----------------------------------------------




 CHD PACKAGE (CHD-FROM-IBOUND) FLOW RATES   PERIOD     14   STEP        5
 -----------------------------------------------
   NUMBER   CELLID                    RATE      
 -----------------------------------------------
     1      (1,1,1)              -5207.9074     
     2      (1,1,2)              -5207.9053     
     3      (1,1,3)              -5207.9046     
     4      (1,1,4)              -5207.9053     
     5      (1,1,5)              -5207.9048     
     6      (1,1,6)              -5207.9083     
     7      (1,1,7)              -5207.9104     
     8      (1,1,8)              -5207.9130     
     9      (1,1,9)              -5207.9153     
     10     (1,21,1)             -5207.9125     
     11     (1,21,2)             -5207.9097     
     12     (1,21,3)             -5207.9068     
     13     (1,21,4)             -5207.9048     
     14     (1,21,5)             -5207.9032     
     15     (1,21,6)             -5207.9018     
     16     (1,21,7)             -5207.9018     
     17     (1,21,8)             -5207.9047     
     18     (1,21,9)             -5207.9092     
 -----------------------------------------------




 HEAD WILL BE SAVED ON UNIT 1016 AT END OF TIME STEP    5, STRESS PERIOD   14


  VOLUME BUDGET FOR ENTIRE MODEL AT END OF TIME STEP    5, STRESS PERIOD  14
  ---------------------------------------------------------------------------------------------------

     CUMULATIVE VOLUME      L**3       RATES FOR THIS TIME STEP      L**3/T          PACKAGE NAME    
     ------------------                 ------------------------                     ----------------

           IN:                                      IN:
           ---                                      ---
              STO-SS =    17915757.0008                STO-SS =       46889.4137     STORAGE                          
              STO-SY =      539151.7489                STO-SY =        1417.0558     STORAGE                          
                 WEL =           0.0000                   WEL =           0.0000     WEL-1                            
                RCHA =    35331674.8717                  RCHA =       85500.0000     RCH-1                            
                 CHD =           0.0000                   CHD =           0.0000     CHD-FROM-IBOUND                  

            TOTAL IN =    53786583.6214              TOTAL IN =      133806.4695

          OUT:                                     OUT:
          ----                                     ----
              STO-SS =    16443605.9127                STO-SS =          61.6464     STORAGE                          
              STO-SY =      491303.7434                STO-SY =           2.4947     STORAGE                          
                 WEL =      559278.5365                   WEL =       40000.0000     WEL-1                            
                RCHA =           0.0000                  RCHA =           0.0000     RCH-1                            
                 CHD =    36292399.4201                   CHD =       93742.3291     CHD-FROM-IBOUND                  

           TOTAL OUT =    53786587.6126             TOTAL OUT =      133806.4702

            IN - OUT =          -3.9912              IN - OUT =      -6.2583E-04

 PERCENT DISCREPANCY =          -0.00     PERCENT DISCREPANCY =          -0.00




         TIME SUMMARY AT END OF TIME STEP    5 IN STRESS PERIOD   14
                    SECONDS     MINUTES      HOURS       DAYS        YEARS
                    -----------------------------------------------------------
   TIME STEP LENGTH 3.36621E+05  5610.3      93.506      3.8961     1.06669E-02
 STRESS PERIOD TIME 1.20804E+06  20134.      335.57      13.982     3.82805E-02
         TOTAL TIME 3.28304E+07 5.47174E+05  9119.6      379.98      1.0403    


end timestep


start timestep kper="14" kstp="6" mode="normal"

 UBDSV1 SAVING     FLOW-JA-FACE ON UNIT   1015 AT TIME STEP      6, STRESS PERIOD     14
 UBDSV06 SAVING              WEL IN MODEL MUMODEL          PACKAGE MUMODEL         CONNECTED TO MODEL MUMODEL          PACKAGE WEL-1            ON UNIT   1015 AT TIME STEP      6, STRESS PERIOD     14
 UBDSV06 SAVING             RCHA IN MODEL MUMODEL          PACKAGE MUMODEL         CONNECTED TO MODEL MUMODEL          PACKAGE RCH-1            ON UNIT   1015 AT TIME STEP      6, STRESS PERIOD     14

 WEL PACKAGE (WEL-1) FLOW RATES   PERIOD     14   STEP        6
 -----------------------------------------------
   NUMBER   CELLID                    RATE      
 -----------------------------------------------
     1      (1,5,5)              -40000.000     
     2      (1,11,5)              0.0000000     
     3      (1,5,5)               0.0000000     
 -----------------------------------------------




 CHD PACKAGE (CHD-FROM-IBOUND) FLOW RATES   PERIOD     14   STEP        6
 -----------------------------------------------
   NUMBER   CELLID                    RATE      
 -----------------------------------------------
     1      (1,1,1)              -5207.9334     
     2      (1,1,2)              -5207.9313     
     3      (1,1,3)              -5207.9305     
     4      (1,1,4)              -5207.9311     
     5      (1,1,5)              -5207.9272     
     6      (1,1,6)              -5207.9340     
     7      (1,1,7)              -5207.9363     
     8      (1,1,8)              -5207.9389     
     9      (1,1,9)              -5207.9412     
     10     (1,21,1)             -5207.9384     
     11     (1,21,2)             -5207.9355     
     12     (1,21,3)             -5207.9327     
     13     (1,21,4)             -5207.9307     
     14     (1,21,5)             -5207.9291     
     15     (1,21,6)             -5207.9278     
     16     (1,21,7)             -5207.9278     
     17     (1,21,8)             -5207.9307     
     18     (1,21,9)             -5207.9351     
 -----------------------------------------------




 HEAD WILL BE SAVED ON UNIT 1016 AT END OF TIME STEP    6, STRESS PERIOD   14


  VOLUME BUDGET FOR ENTIRE MODEL AT END OF TIME STEP    6, STRESS PERIOD  14
  ---------------------------------------------------------------------------------------------------

     CUMULATIVE VOLUME      L**3       RATES FOR THIS TIME STEP      L**3/T          PACKAGE NAME    
     ------------------                 ------------------------                     ----------------

           IN:                                      IN:
           ---                                      ---
              STO-SS =    18134905.7448                STO-SS =       46873.8814     STORAGE                          
              STO-SY =      545799.5578                STO-SY =        1421.9046     STORAGE                          
                 WEL =           0.0000                   WEL =           0.0000     WEL-1                            
                RCHA =    35731411.7201                  RCHA =       85500.0000     RCH-1                            
                 CHD =           0.0000                   CHD =           0.0000     CHD-FROM-IBOUND                  

            TOTAL IN =    54412117.0227              TOTAL IN =      133795.7859

          OUT:                                     OUT:
          ----                                     ----
              STO-SS =    16443844.0446                STO-SS =          50.9342     STORAGE                          
              STO-SY =      491313.3799                STO-SY =           2.0612     STORAGE                          
                 WEL =      746289.9275                   WEL =       40000.0000     WEL-1                            
                RCHA =           0.0000                  RCHA =           0.0000     RCH-1                            
                 CHD =    36730673.6668                   CHD =       93742.7916     CHD-FROM-IBOUND                  

           TOTAL OUT =    54412121.0188             TOTAL OUT =      133795.7870

            IN - OUT =          -3.9961              IN - OUT =      -1.0371E-03

 PERCENT DISCREPANCY =          -0.00     PERCENT DISCREPANCY =          -0.00




         TIME SUMMARY AT END OF TIME STEP    6 IN STRESS PERIOD   14
                    SECONDS     MINUTES      HOURS       DAYS        YEARS
                    -----------------------------------------------------------
   TIME STEP LENGTH 4.03945E+05  6732.4      112.21      4.6753     1.28002E-02
 STRESS PERIOD TIME 1.61199E+06  26866.      447.77      18.657     5.10808E-02
         TOTAL TIME 3.32344E+07 5.53906E+05  9231.8      384.66      1.0531    


end timestep


start timestep kper="14" kstp="7" mode="normal"

 UBDSV1 SAVING     FLOW-JA-FACE ON UNIT   1015 AT TIME STEP      7, STRESS PERIOD     14
 UBDSV06 SAVING              WEL IN MODEL MUMODEL          PACKAGE MUMODEL         CONNECTED TO MODEL MUMODEL          PACKAGE WEL-1            ON UNIT   1015 AT TIME STEP      7, STRESS PERIOD     14
 UBDSV06 SAVING             RCHA IN MODEL MUMODEL          PACKAGE MUMODEL         CONNECTED TO MODEL MUMODEL          PACKAGE RCH-1            ON UNIT   1015 AT TIME STEP      7, STRESS PERIOD     14

 WEL PACKAGE (WEL-1) FLOW RATES   PERIOD     14   STEP        7
 -----------------------------------------------
   NUMBER   CELLID                    RATE      
 -----------------------------------------------
     1      (1,5,5)              -40000.000     
     2      (1,11,5)              0.0000000     
     3      (1,5,5)               0.0000000     
 -----------------------------------------------




 CHD PACKAGE (CHD-FROM-IBOUND) FLOW RATES   PERIOD     14   STEP        7
 -----------------------------------------------
   NUMBER   CELLID                    RATE      
 -----------------------------------------------
     1      (1,1,1)              -5207.9571     
     2      (1,1,2)              -5207.9550     
     3      (1,1,3)              -5207.9542     
     4      (1,1,4)              -5207.9543     
     5      (1,1,5)              -5207.9426     
     6      (1,1,6)              -5207.9572     
     7      (1,1,7)              -5207.9600     
     8      (1,1,8)              -5207.9626     
     9      (1,1,9)              -5207.9648     
     10     (1,21,1)             -5207.9620     
     11     (1,21,2)             -5207.9592     
     12     (1,21,3)             -5207.9564     
     13     (1,21,4)             -5207.9544     
     14     (1,21,5)             -5207.9528     
     15     (1,21,6)             -5207.9515     
     16     (1,21,7)             -5207.9516     
     17     (1,21,8)             -5207.9545     
     18     (1,21,9)             -5207.9589     
 -----------------------------------------------




 HEAD WILL BE SAVED ON UNIT 1016 AT END OF TIME STEP    7, STRESS PERIOD   14


  VOLUME BUDGET FOR ENTIRE MODEL AT END OF TIME STEP    7, STRESS PERIOD  14
  ---------------------------------------------------------------------------------------------------

     CUMULATIVE VOLUME      L**3       RATES FOR THIS TIME STEP      L**3/T          PACKAGE NAME    
     ------------------                 ------------------------                     ----------------

           IN:                                      IN:
           ---                                      ---
              STO-SS =    18397783.2657                STO-SS =       46855.8839     STORAGE                          
              STO-SY =      553806.4819                STO-SY =        1427.1723     STORAGE                          
                 WEL =           0.0000                   WEL =           0.0000     WEL-1                            
                RCHA =    36211095.9383                  RCHA =       85500.0000     RCH-1                            
                 CHD =           0.0000                   CHD =           0.0000     CHD-FROM-IBOUND                  

            TOTAL IN =    55162685.6858              TOTAL IN =      133783.0562

          OUT:                                     OUT:
          ----                                     ----
              STO-SS =    16444058.9150                STO-SS =          38.2990     STORAGE                          
              STO-SY =      491322.0750                STO-SY =           1.5498     STORAGE                          
                 WEL =      970703.5968                   WEL =       40000.0000     WEL-1                            
                RCHA =           0.0000                  RCHA =           0.0000     RCH-1                            
                 CHD =    37256605.1047                   CHD =       93743.2091     CHD-FROM-IBOUND                  

           TOTAL OUT =    55162689.6915             TOTAL OUT =      133783.0579

            IN - OUT =          -4.0056              IN - OUT =      -1.7071E-03

 PERCENT DISCREPANCY =          -0.00     PERCENT DISCREPANCY =          -0.00




         TIME SUMMARY AT END OF TIME STEP    7 IN STRESS PERIOD   14
                    SECONDS     MINUTES      HOURS       DAYS        YEARS
                    -----------------------------------------------------------
   TIME STEP LENGTH 4.84734E+05  8078.9      134.65      5.6103     1.53603E-02
 STRESS PERIOD TIME 2.09672E+06  34945.      582.42      24.268     6.64410E-02
         TOTAL TIME 3.37191E+07 5.61985E+05  9366.4      390.27      1.0685    


end timestep


start timestep kper="14" kstp="8" mode="normal"

 UBDSV1 SAVING     FLOW-JA-FACE ON UNIT   1015 AT TIME STEP      8, STRESS PERIOD     14
 UBDSV06 SAVING              WEL IN MODEL MUMODEL          PACKAGE MUMODEL         CONNECTED TO MODEL MUMODEL          PACKAGE WEL-1            ON UNIT   1015 AT TIME STEP      8, STRESS PERIOD     14
 UBDSV06 SAVING             RCHA IN MODEL MUMODEL          PACKAGE MUMODEL         CONNECTED TO MODEL MUMODEL          PACKAGE RCH-1            ON UNIT   1015 AT TIME STEP      8, STRESS PERIOD     14

 WEL PACKAGE (WEL-1) FLOW RATES   PERIOD     14   STEP        8
 -----------------------------------------------
   NUMBER   CELLID                    RATE      
 -----------------------------------------------
     1      (1,5,5)              -40000.000     
     2      (1,11,5)              0.0000000     
     3      (1,5,5)               0.0000000     
 -----------------------------------------------




 CHD PACKAGE (CHD-FROM-IBOUND) FLOW RATES   PERIOD     14   STEP        8
 -----------------------------------------------
   NUMBER   CELLID                    RATE      
 -----------------------------------------------
     1      (1,1,1)              -5207.9753     
     2      (1,1,2)              -5207.9733     
     3      (1,1,3)              -5207.9724     
     4      (1,1,4)              -5207.9709     
     5      (1,1,5)              -5207.9418     
     6      (1,1,6)              -5207.9738     
     7      (1,1,7)              -5207.9780     
     8      (1,1,8)              -5207.9807     
     9      (1,1,9)              -5207.9829     
     10     (1,21,1)             -5207.9801     
     11     (1,21,2)             -5207.9773     
     12     (1,21,3)             -5207.9746     
     13     (1,21,4)             -5207.9726     
     14     (1,21,5)             -5207.9711     
     15     (1,21,6)             -5207.9698     
     16     (1,21,7)             -5207.9699     
     17     (1,21,8)             -5207.9727     
     18     (1,21,9)             -5207.9770     
 -----------------------------------------------




 HEAD WILL BE SAVED ON UNIT 1016 AT END OF TIME STEP    8, STRESS PERIOD   14


  VOLUME BUDGET FOR ENTIRE MODEL AT END OF TIME STEP    8, STRESS PERIOD  14
  ---------------------------------------------------------------------------------------------------

     CUMULATIVE VOLUME      L**3       RATES FOR THIS TIME STEP      L**3/T          PACKAGE NAME    
     ------------------                 ------------------------                     ----------------

           IN:                                      IN:
           ---                                      ---
              STO-SS =    18713096.4650                STO-SS =       46835.1149     STORAGE                          
              STO-SY =      563452.5700                STO-SY =        1432.7838     STORAGE                          
                 WEL =           0.0000                   WEL =           0.0000     WEL-1                            
                RCHA =    36786717.0000                  RCHA =       85500.0000     RCH-1                            
                 CHD =           0.0000                   CHD =           0.0000     CHD-FROM-IBOUND                  

            TOTAL IN =    56063266.0350              TOTAL IN =      133767.8987

          OUT:                                     OUT:
          ----                                     ----
              STO-SS =    16444216.6965                STO-SS =          23.4361     STORAGE                          
              STO-SY =      491328.4600                STO-SY =           0.9484     STORAGE                          
                 WEL =     1240000.0000                   WEL =       40000.0000     WEL-1                            
                RCHA =           0.0000                  RCHA =           0.0000     RCH-1                            
                 CHD =    37887724.8842                   CHD =       93743.5142     CHD-FROM-IBOUND                  

           TOTAL OUT =    56063270.0406             TOTAL OUT =      133767.8987

            IN - OUT =          -4.0057              IN - OUT =      -9.6776E-07

 PERCENT DISCREPANCY =          -0.00     PERCENT DISCREPANCY =          -0.00




         TIME SUMMARY AT END OF TIME STEP    8 IN STRESS PERIOD   14
                    SECONDS     MINUTES      HOURS       DAYS        YEARS
                    -----------------------------------------------------------
   TIME STEP LENGTH 5.81680E+05  9694.7      161.58      6.7324     1.84323E-02
 STRESS PERIOD TIME 2.67840E+06  44640.      744.00      31.000     8.48734E-02
         TOTAL TIME 3.43008E+07 5.71680E+05  9528.0      397.00      1.0869    


end timestep


start timestep kper="15" kstp="1" mode="normal"


 OUTPUT CONTROL FOR STRESS PERIOD 15 IS REPEATED USING SETTINGS FROM A PREVIOUS STRESS PERIOD.


 STRESS PERIOD 15 IS TRANSIENT


 REUSING WELS FROM LAST STRESS PERIOD

 REUSING CHDS FROM LAST STRESS PERIOD
 UBDSV1 SAVING     FLOW-JA-FACE ON UNIT   1015 AT TIME STEP      1, STRESS PERIOD     15
 UBDSV06 SAVING              WEL IN MODEL MUMODEL          PACKAGE MUMODEL         CONNECTED TO MODEL MUMODEL          PACKAGE WEL-1            ON UNIT   1015 AT TIME STEP      1, STRESS PERIOD     15
 UBDSV06 SAVING             RCHA IN MODEL MUMODEL          PACKAGE MUMODEL         CONNECTED TO MODEL MUMODEL          PACKAGE RCH-1            ON UNIT   1015 AT TIME STEP      1, STRESS PERIOD     15

 WEL PACKAGE (WEL-1) FLOW RATES   PERIOD     15   STEP        1
 -----------------------------------------------
   NUMBER   CELLID                    RATE      
 -----------------------------------------------
     1      (1,5,5)              -40000.000     
     2      (1,11,5)              0.0000000     
     3      (1,5,5)               0.0000000     
 -----------------------------------------------




 CHD PACKAGE (CHD-FROM-IBOUND) FLOW RATES   PERIOD     15   STEP        1
 -----------------------------------------------
   NUMBER   CELLID                    RATE      
 -----------------------------------------------
     1      (1,1,1)              -5211.1365     
     2      (1,1,2)              -5211.1345     
     3      (1,1,3)              -5211.1336     
     4      (1,1,4)              -5211.1317     
     5      (1,1,5)              -5211.0977     
     6      (1,1,6)              -5211.1346     
     7      (1,1,7)              -5211.1393     
     8      (1,1,8)              -5211.1419     
     9      (1,1,9)              -5211.1442     
     10     (1,21,1)             -5211.1413     
     11     (1,21,2)             -5211.1386     
     12     (1,21,3)             -5211.1358     
     13     (1,21,4)             -5211.1339     
     14     (1,21,5)             -5211.1323     
     15     (1,21,6)             -5211.1310     
     16     (1,21,7)             -5211.1311     
     17     (1,21,8)             -5211.1340     
     18     (1,21,9)             -5211.1383     
 -----------------------------------------------




 HEAD WILL BE SAVED ON UNIT 1016 AT END OF TIME STEP    1, STRESS PERIOD   15


  VOLUME BUDGET FOR ENTIRE MODEL AT END OF TIME STEP    1, STRESS PERIOD  15
  ---------------------------------------------------------------------------------------------------

     CUMULATIVE VOLUME      L**3       RATES FOR THIS TIME STEP      L**3/T          PACKAGE NAME    
     ------------------                 ------------------------                     ----------------

           IN:                                      IN:
           ---                                      ---
              STO-SS =    18769744.5713                STO-SS =       33380.0682     STORAGE                          
              STO-SY =      565216.5642                STO-SY =        1039.4389     STORAGE                          
                 WEL =           0.0000                   WEL =           0.0000     WEL-1                            
                RCHA =    37222013.8717                  RCHA =      256500.0000     RCH-1                            
                 CHD =           0.0000                   CHD =           0.0000     CHD-FROM-IBOUND                  

            TOTAL IN =    56556975.0073              TOTAL IN =      290919.5072

          OUT:                                     OUT:
          ----                                     ----
              STO-SS =    16703073.8229                STO-SS =      152532.3457     STORAGE                          
              STO-SY =      499112.4709                STO-SY =        4586.7520     STORAGE                          
                 WEL =     1307882.5531                   WEL =       40000.0000     WEL-1                            
                RCHA =           0.0000                  RCHA =           0.0000     RCH-1                            
                 CHD =    38046910.1674                   CHD =       93800.4103     CHD-FROM-IBOUND                  

           TOTAL OUT =    56556979.0144             TOTAL OUT =      290919.5080

            IN - OUT =          -4.0071              IN - OUT =      -8.4625E-04

 PERCENT DISCREPANCY =          -0.00     PERCENT DISCREPANCY =          -0.00




         TIME SUMMARY AT END OF TIME STEP    1 IN STRESS PERIOD   15
                    SECONDS     MINUTES      HOURS       DAYS        YEARS
                    -----------------------------------------------------------
   TIME STEP LENGTH 1.46626E+05  2443.8      40.730      1.6971     4.64631E-03
 STRESS PERIOD TIME 1.46626E+05  2443.8      40.730      1.6971     4.64631E-03
         TOTAL TIME 3.44474E+07 5.74124E+05  9568.7      398.70      1.0916    


end timestep


start timestep kper="15" kstp="2" mode="normal"

 UBDSV1 SAVING     FLOW-JA-FACE ON UNIT   1015 AT TIME STEP      2, STRESS PERIOD     15
 UBDSV06 SAVING              WEL IN MODEL MUMODEL          PACKAGE MUMODEL         CONNECTED TO MODEL MUMODEL          PACKAGE WEL-1            ON UNIT   1015 AT TIME STEP      2, STRESS PERIOD     15
 UBDSV06 SAVING             RCHA IN MODEL MUMODEL          PACKAGE MUMODEL         CONNECTED TO MODEL MUMODEL          PACKAGE RCH-1            ON UNIT   1015 AT TIME STEP      2, STRESS PERIOD     15

 WEL PACKAGE (WEL-1) FLOW RATES   PERIOD     15   STEP        2
 -----------------------------------------------
   NUMBER   CELLID                    RATE      
 -----------------------------------------------
     1      (1,5,5)              -40000.000     
     2      (1,11,5)              0.0000000     
     3      (1,5,5)               0.0000000     
 -----------------------------------------------




 CHD PACKAGE (CHD-FROM-IBOUND) FLOW RATES   PERIOD     15   STEP        2
 -----------------------------------------------
   NUMBER   CELLID                    RATE      
 -----------------------------------------------
     1      (1,1,1)              -5214.9149     
     2      (1,1,2)              -5214.9129     
     3      (1,1,3)              -5214.9120     
     4      (1,1,4)              -5214.9094     
     5      (1,1,5)              -5214.8686     
     6      (1,1,6)              -5214.9123     
     7      (1,1,7)              -5214.9176     
     8      (1,1,8)              -5214.9203     
     9      (1,1,9)              -5214.9225     
     10     (1,21,1)             -5214.9196     
     11     (1,21,2)             -5214.9169     
     12     (1,21,3)             -5214.9142     
     13     (1,21,4)             -5214.9122     
     14     (1,21,5)             -5214.9107     
     15     (1,21,6)             -5214.9094     
     16     (1,21,7)             -5214.9095     
     17     (1,21,8)             -5214.9124     
     18     (1,21,9)             -5214.9166     
 -----------------------------------------------




 HEAD WILL BE SAVED ON UNIT 1016 AT END OF TIME STEP    2, STRESS PERIOD   15


  VOLUME BUDGET FOR ENTIRE MODEL AT END OF TIME STEP    2, STRESS PERIOD  15
  ---------------------------------------------------------------------------------------------------

     CUMULATIVE VOLUME      L**3       RATES FOR THIS TIME STEP      L**3/T          PACKAGE NAME    
     ------------------                 ------------------------                     ----------------

           IN:                                      IN:
           ---                                      ---
              STO-SS =    18837542.0263                STO-SS =       33291.5464     STORAGE                          
              STO-SY =      567330.9646                STO-SY =        1038.2640     STORAGE                          
                 WEL =           0.0000                   WEL =           0.0000     WEL-1                            
                RCHA =    37744370.1178                  RCHA =      256500.0000     RCH-1                            
                 CHD =           0.0000                   CHD =           0.0000     CHD-FROM-IBOUND                  

            TOTAL IN =    57149243.1087              TOTAL IN =      290829.8104

          OUT:                                     OUT:
          ----                                     ----
              STO-SS =    17013392.6494                STO-SS =      152380.2570     STORAGE                          
              STO-SY =      508441.8582                STO-SY =        4581.1414     STORAGE                          
                 WEL =     1389341.6168                   WEL =       40000.0000     WEL-1                            
                RCHA =           0.0000                  RCHA =           0.0000     RCH-1                            
                 CHD =    38238070.9915                   CHD =       93868.4121     CHD-FROM-IBOUND                  

           TOTAL OUT =    57149247.1159             TOTAL OUT =      290829.8105

            IN - OUT =          -4.0072              IN - OUT =      -7.5658E-05

 PERCENT DISCREPANCY =          -0.00     PERCENT DISCREPANCY =          -0.00




         TIME SUMMARY AT END OF TIME STEP    2 IN STRESS PERIOD   15
                    SECONDS     MINUTES      HOURS       DAYS        YEARS
                    -----------------------------------------------------------
   TIME STEP LENGTH 1.75952E+05  2932.5      48.875      2.0365     5.57557E-03
 STRESS PERIOD TIME 3.22578E+05  5376.3      89.605      3.7335     1.02219E-02
         TOTAL TIME 3.46234E+07 5.77056E+05  9617.6      400.73      1.0971    


end timestep


start timestep kper="15" kstp="3" mode="normal"

 UBDSV1 SAVING     FLOW-JA-FACE ON UNIT   1015 AT TIME STEP      3, STRESS PERIOD     15
 UBDSV06 SAVING              WEL IN MODEL MUMODEL          PACKAGE MUMODEL         CONNECTED TO MODEL MUMODEL          PACKAGE WEL-1            ON UNIT   1015 AT TIME STEP      3, STRESS PERIOD     15
 UBDSV06 SAVING             RCHA IN MODEL MUMODEL          PACKAGE MUMODEL         CONNECTED TO MODEL MUMODEL          PACKAGE RCH-1            ON UNIT   1015 AT TIME STEP      3, STRESS PERIOD     15

 WEL PACKAGE (WEL-1) FLOW RATES   PERIOD     15   STEP        3
 -----------------------------------------------
   NUMBER   CELLID                    RATE      
 -----------------------------------------------
     1      (1,5,5)              -40000.000     
     2      (1,11,5)              0.0000000     
     3      (1,5,5)               0.0000000     
 -----------------------------------------------




 CHD PACKAGE (CHD-FROM-IBOUND) FLOW RATES   PERIOD     15   STEP        3
 -----------------------------------------------
   NUMBER   CELLID                    RATE      
 -----------------------------------------------
     1      (1,1,1)              -5219.4273     
     2      (1,1,2)              -5219.4253     
     3      (1,1,3)              -5219.4244     
     4      (1,1,4)              -5219.4208     
     5      (1,1,5)              -5219.3706     
     6      (1,1,6)              -5219.4237     
     7      (1,1,7)              -5219.4300     
     8      (1,1,8)              -5219.4327     
     9      (1,1,9)              -5219.4349     
     10     (1,21,1)             -5219.4320     
     11     (1,21,2)             -5219.4293     
     12     (1,21,3)             -5219.4266     
     13     (1,21,4)             -5219.4247     
     14     (1,21,5)             -5219.4231     
     15     (1,21,6)             -5219.4219     
     16     (1,21,7)             -5219.4220     
     17     (1,21,8)             -5219.4248     
     18     (1,21,9)             -5219.4291     
 -----------------------------------------------




 HEAD WILL BE SAVED ON UNIT 1016 AT END OF TIME STEP    3, STRESS PERIOD   15


  VOLUME BUDGET FOR ENTIRE MODEL AT END OF TIME STEP    3, STRESS PERIOD  15
  ---------------------------------------------------------------------------------------------------

     CUMULATIVE VOLUME      L**3       RATES FOR THIS TIME STEP      L**3/T          PACKAGE NAME    
     ------------------                 ------------------------                     ----------------

           IN:                                      IN:
           ---                                      ---
              STO-SS =    18918627.2475                STO-SS =       33180.3557     STORAGE                          
              STO-SY =      569864.2286                STO-SY =        1036.6205     STORAGE                          
                 WEL =           0.0000                   WEL =           0.0000     WEL-1                            
                RCHA =    38371197.6131                  RCHA =      256500.0000     RCH-1                            
                 CHD =           0.0000                   CHD =           0.0000     CHD-FROM-IBOUND                  

            TOTAL IN =    57859689.0892              TOTAL IN =      290716.9761

          OUT:                                     OUT:
          ----                                     ----
              STO-SS =    17385317.8225                STO-SS =      152193.0796     STORAGE                          
              STO-SY =      519620.3392                STO-SY =        4574.2735     STORAGE                          
                 WEL =     1487092.4933                   WEL =       40000.0000     WEL-1                            
                RCHA =           0.0000                  RCHA =           0.0000     RCH-1                            
                 CHD =    38467662.4418                   CHD =       93949.6232     CHD-FROM-IBOUND                  

           TOTAL OUT =    57859693.0968             TOTAL OUT =      290716.9763

            IN - OUT =          -4.0076              IN - OUT =      -1.2780E-04

 PERCENT DISCREPANCY =          -0.00     PERCENT DISCREPANCY =          -0.00




         TIME SUMMARY AT END OF TIME STEP    3 IN STRESS PERIOD   15
                    SECONDS     MINUTES      HOURS       DAYS        YEARS
                    -----------------------------------------------------------
   TIME STEP LENGTH 2.11142E+05  3519.0      58.651      2.4438     6.69068E-03
 STRESS PERIOD TIME 5.33720E+05  8895.3      148.26      6.1773     1.69126E-02
         TOTAL TIME 3.48345E+07 5.80575E+05  9676.3      403.18      1.1038    


end timestep


start timestep kper="15" kstp="4" mode="normal"

 UBDSV1 SAVING     FLOW-JA-FACE ON UNIT   1015 AT TIME STEP      4, STRESS PERIOD     15
 UBDSV06 SAVING              WEL IN MODEL MUMODEL          PACKAGE MUMODEL         CONNECTED TO MODEL MUMODEL          PACKAGE WEL-1            ON UNIT   1015 AT TIME STEP      4, STRESS PERIOD     15
 UBDSV06 SAVING             RCHA IN MODEL MUMODEL          PACKAGE MUMODEL         CONNECTED TO MODEL MUMODEL          PACKAGE RCH-1            ON UNIT   1015 AT TIME STEP      4, STRESS PERIOD     15

 WEL PACKAGE (WEL-1) FLOW RATES   PERIOD     15   STEP        4
 -----------------------------------------------
   NUMBER   CELLID                    RATE      
 -----------------------------------------------
     1      (1,5,5)              -40000.000     
     2      (1,11,5)              0.0000000     
     3      (1,5,5)               0.0000000     
 -----------------------------------------------




 CHD PACKAGE (CHD-FROM-IBOUND) FLOW RATES   PERIOD     15   STEP        4
 -----------------------------------------------
   NUMBER   CELLID                    RATE      
 -----------------------------------------------
     1      (1,1,1)              -5224.8114     
     2      (1,1,2)              -5224.8095     
     3      (1,1,3)              -5224.8085     
     4      (1,1,4)              -5224.8035     
     5      (1,1,5)              -5224.7396     
     6      (1,1,6)              -5224.8064     
     7      (1,1,7)              -5224.8140     
     8      (1,1,8)              -5224.8168     
     9      (1,1,9)              -5224.8190     
     10     (1,21,1)             -5224.8161     
     11     (1,21,2)             -5224.8134     
     12     (1,21,3)             -5224.8107     
     13     (1,21,4)             -5224.8088     
     14     (1,21,5)             -5224.8072     
     15     (1,21,6)             -5224.8060     
     16     (1,21,7)             -5224.8062     
     17     (1,21,8)             -5224.8090     
     18     (1,21,9)             -5224.8132     
 -----------------------------------------------




 HEAD WILL BE SAVED ON UNIT 1016 AT END OF TIME STEP    4, STRESS PERIOD   15


  VOLUME BUDGET FOR ENTIRE MODEL AT END OF TIME STEP    4, STRESS PERIOD  15
  ---------------------------------------------------------------------------------------------------

     CUMULATIVE VOLUME      L**3       RATES FOR THIS TIME STEP      L**3/T          PACKAGE NAME    
     ------------------                 ------------------------                     ----------------

           IN:                                      IN:
           ---                                      ---
              STO-SS =    19015518.5667                STO-SS =       33040.2218     STORAGE                          
              STO-SY =      572897.4318                STO-SY =        1034.3311     STORAGE                          
                 WEL =           0.0000                   WEL =           0.0000     WEL-1                            
                RCHA =    39123390.6075                  RCHA =      256500.0000     RCH-1                            
                 CHD =           0.0000                   CHD =           0.0000     CHD-FROM-IBOUND                  

            TOTAL IN =    58711806.6060              TOTAL IN =      290574.5529

          OUT:                                     OUT:
          ----                                     ----
              STO-SS =    17830950.9205                STO-SS =      151962.1832     STORAGE                          
              STO-SY =      533009.8162                STO-SY =        4565.8506     STORAGE                          
                 WEL =     1604393.5450                   WEL =       40000.0000     WEL-1                            
                RCHA =           0.0000                  RCHA =           0.0000     RCH-1                            
                 CHD =    38743456.3324                   CHD =       94046.5193     CHD-FROM-IBOUND                  

           TOTAL OUT =    58711810.6142             TOTAL OUT =      290574.5531

            IN - OUT =          -4.0082              IN - OUT =      -2.0676E-04

 PERCENT DISCREPANCY =          -0.00     PERCENT DISCREPANCY =          -0.00




         TIME SUMMARY AT END OF TIME STEP    4 IN STRESS PERIOD   15
                    SECONDS     MINUTES      HOURS       DAYS        YEARS
                    -----------------------------------------------------------
   TIME STEP LENGTH 2.53370E+05  4222.8      70.381      2.9325     8.02882E-03
 STRESS PERIOD TIME 7.87090E+05  13118.      218.64      9.1098     2.49414E-02
         TOTAL TIME 3.50879E+07 5.84798E+05  9746.6      406.11      1.1119    


end timestep


start timestep kper="15" kstp="5" mode="normal"

 UBDSV1 SAVING     FLOW-JA-FACE ON UNIT   1015 AT TIME STEP      5, STRESS PERIOD     15
 UBDSV06 SAVING              WEL IN MODEL MUMODEL          PACKAGE MUMODEL         CONNECTED TO MODEL MUMODEL          PACKAGE WEL-1            ON UNIT   1015 AT TIME STEP      5, STRESS PERIOD     15
 UBDSV06 SAVING             RCHA IN MODEL MUMODEL          PACKAGE MUMODEL         CONNECTED TO MODEL MUMODEL          PACKAGE RCH-1            ON UNIT   1015 AT TIME STEP      5, STRESS PERIOD     15

 WEL PACKAGE (WEL-1) FLOW RATES   PERIOD     15   STEP        5
 -----------------------------------------------
   NUMBER   CELLID                    RATE      
 -----------------------------------------------
     1      (1,5,5)              -40000.000     
     2      (1,11,5)              0.0000000     
     3      (1,5,5)               0.0000000     
 -----------------------------------------------




 CHD PACKAGE (CHD-FROM-IBOUND) FLOW RATES   PERIOD     15   STEP        5
 -----------------------------------------------
   NUMBER   CELLID                    RATE      
 -----------------------------------------------
     1      (1,1,1)              -5231.2287     
     2      (1,1,2)              -5231.2267     
     3      (1,1,3)              -5231.2256     
     4      (1,1,4)              -5231.2184     
     5      (1,1,5)              -5231.1346     
     6      (1,1,6)              -5231.2213     
     7      (1,1,7)              -5231.2311     
     8      (1,1,8)              -5231.2340     
     9      (1,1,9)              -5231.2362     
     10     (1,21,1)             -5231.2333     
     11     (1,21,2)             -5231.2306     
     12     (1,21,3)             -5231.2279     
     13     (1,21,4)             -5231.2260     
     14     (1,21,5)             -5231.2245     
     15     (1,21,6)             -5231.2233     
     16     (1,21,7)             -5231.2234     
     17     (1,21,8)             -5231.2263     
     18     (1,21,9)             -5231.2304     
 -----------------------------------------------




 HEAD WILL BE SAVED ON UNIT 1016 AT END OF TIME STEP    5, STRESS PERIOD   15


  VOLUME BUDGET FOR ENTIRE MODEL AT END OF TIME STEP    5, STRESS PERIOD  15
  ---------------------------------------------------------------------------------------------------

     CUMULATIVE VOLUME      L**3       RATES FOR THIS TIME STEP      L**3/T          PACKAGE NAME    
     ------------------                 ------------------------                     ----------------

           IN:                                      IN:
           ---                                      ---
              STO-SS =    19131164.9655                STO-SS =       32863.1321     STORAGE                          
              STO-SY =      576526.1114                STO-SY =        1031.1586     STORAGE                          
                 WEL =           0.0000                   WEL =           0.0000     WEL-1                            
                RCHA =    40026022.2007                  RCHA =      256500.0000     RCH-1                            
                 CHD =           0.0000                   CHD =           0.0000     CHD-FROM-IBOUND                  

            TOTAL IN =    59733713.2776              TOTAL IN =      290394.2907

          OUT:                                     OUT:
          ----                                     ----
              STO-SS =    18364706.3130                STO-SS =      151676.7851     STORAGE                          
              STO-SY =      549040.7785                STO-SY =        4555.5040     STORAGE                          
                 WEL =     1745154.8071                   WEL =       40000.0000     WEL-1                            
                RCHA =           0.0000                  RCHA =           0.0000     RCH-1                            
                 CHD =    39074815.3884                   CHD =       94162.0020     CHD-FROM-IBOUND                  

           TOTAL OUT =    59733717.2870             TOTAL OUT =      290394.2910

            IN - OUT =          -4.0094              IN - OUT =      -3.5142E-04

 PERCENT DISCREPANCY =          -0.00     PERCENT DISCREPANCY =          -0.00




         TIME SUMMARY AT END OF TIME STEP    5 IN STRESS PERIOD   15
                    SECONDS     MINUTES      HOURS       DAYS        YEARS
                    -----------------------------------------------------------
   TIME STEP LENGTH 3.04044E+05  5067.4      84.457      3.5190     9.63458E-03
 STRESS PERIOD TIME 1.09113E+06  18186.      303.09      12.629     3.45760E-02
         TOTAL TIME 3.53919E+07 5.89866E+05  9831.1      409.63      1.1215    


end timestep


start timestep kper="15" kstp="6" mode="normal"

 UBDSV1 SAVING     FLOW-JA-FACE ON UNIT   1015 AT TIME STEP      6, STRESS PERIOD     15
 UBDSV06 SAVING              WEL IN MODEL MUMODEL          PACKAGE MUMODEL         CONNECTED TO MODEL MUMODEL          PACKAGE WEL-1            ON UNIT   1015 AT TIME STEP      6, STRESS PERIOD     15
 UBDSV06 SAVING             RCHA IN MODEL MUMODEL          PACKAGE MUMODEL         CONNECTED TO MODEL MUMODEL          PACKAGE RCH-1            ON UNIT   1015 AT TIME STEP      6, STRESS PERIOD     15

 WEL PACKAGE (WEL-1) FLOW RATES   PERIOD     15   STEP        6
 -----------------------------------------------
   NUMBER   CELLID                    RATE      
 -----------------------------------------------
     1      (1,5,5)              -40000.000     
     2      (1,11,5)              0.0000000     
     3      (1,5,5)               0.0000000     
 -----------------------------------------------




 CHD PACKAGE (CHD-FROM-IBOUND) FLOW RATES   PERIOD     15   STEP        6
 -----------------------------------------------
   NUMBER   CELLID                    RATE      
 -----------------------------------------------
     1      (1,1,1)              -5238.8673     
     2      (1,1,2)              -5238.8654     
     3      (1,1,3)              -5238.8640     
     4      (1,1,4)              -5238.8534     
     5      (1,1,5)              -5238.7398     
     6      (1,1,6)              -5238.8562     
     7      (1,1,7)              -5238.8695     
     8      (1,1,8)              -5238.8726     
     9      (1,1,9)              -5238.8748     
     10     (1,21,1)             -5238.8719     
     11     (1,21,2)             -5238.8693     
     12     (1,21,3)             -5238.8666     
     13     (1,21,4)             -5238.8647     
     14     (1,21,5)             -5238.8632     
     15     (1,21,6)             -5238.8620     
     16     (1,21,7)             -5238.8621     
     17     (1,21,8)             -5238.8650     
     18     (1,21,9)             -5238.8691     
 -----------------------------------------------




 HEAD WILL BE SAVED ON UNIT 1016 AT END OF TIME STEP    6, STRESS PERIOD   15


  VOLUME BUDGET FOR ENTIRE MODEL AT END OF TIME STEP    6, STRESS PERIOD  15
  ---------------------------------------------------------------------------------------------------

     CUMULATIVE VOLUME      L**3       RATES FOR THIS TIME STEP      L**3/T          PACKAGE NAME    
     ------------------                 ------------------------                     ----------------

           IN:                                      IN:
           ---                                      ---
              STO-SS =    19268993.9206                STO-SS =       32638.9408     STORAGE                          
              STO-SY =      580862.0782                STO-SY =        1026.7898     STORAGE                          
                 WEL =           0.0000                   WEL =           0.0000     WEL-1                            
                RCHA =    41109180.1126                  RCHA =      256500.0000     RCH-1                            
                 CHD =           0.0000                   CHD =           0.0000     CHD-FROM-IBOUND                  

            TOTAL IN =    60959036.1115              TOTAL IN =      290165.7306

          OUT:                                     OUT:
          ----                                     ----
              STO-SS =    19003720.8995                STO-SS =      151323.4955     STORAGE                          
              STO-SY =      568224.1973                STO-SY =        4542.7789     STORAGE                          
                 WEL =     1914068.3217                   WEL =       40000.0000     WEL-1                            
                RCHA =           0.0000                  RCHA =           0.0000     RCH-1                            
                 CHD =    39473026.7049                   CHD =       94299.4568     CHD-FROM-IBOUND                  

           TOTAL OUT =    60959040.1233             TOTAL OUT =      290165.7312

            IN - OUT =          -4.0119              IN - OUT =      -5.8095E-04

 PERCENT DISCREPANCY =          -0.00     PERCENT DISCREPANCY =          -0.00




         TIME SUMMARY AT END OF TIME STEP    6 IN STRESS PERIOD   15
                    SECONDS     MINUTES      HOURS       DAYS        YEARS
                    -----------------------------------------------------------
   TIME STEP LENGTH 3.64853E+05  6080.9      101.35      4.2228     1.15615E-02
 STRESS PERIOD TIME 1.45599E+06  24266.      404.44      16.852     4.61375E-02
         TOTAL TIME 3.57568E+07 5.95946E+05  9932.4      413.85      1.1331    


end timestep


start timestep kper="15" kstp="7" mode="normal"

 UBDSV1 SAVING     FLOW-JA-FACE ON UNIT   1015 AT TIME STEP      7, STRESS PERIOD     15
 UBDSV06 SAVING              WEL IN MODEL MUMODEL          PACKAGE MUMODEL         CONNECTED TO MODEL MUMODEL          PACKAGE WEL-1            ON UNIT   1015 AT TIME STEP      7, STRESS PERIOD     15
 UBDSV06 SAVING             RCHA IN MODEL MUMODEL          PACKAGE MUMODEL         CONNECTED TO MODEL MUMODEL          PACKAGE RCH-1            ON UNIT   1015 AT TIME STEP      7, STRESS PERIOD     15

 WEL PACKAGE (WEL-1) FLOW RATES   PERIOD     15   STEP        7
 -----------------------------------------------
   NUMBER   CELLID                    RATE      
 -----------------------------------------------
     1      (1,5,5)              -40000.000     
     2      (1,11,5)              0.0000000     
     3      (1,5,5)               0.0000000     
 -----------------------------------------------




 CHD PACKAGE (CHD-FROM-IBOUND) FLOW RATES   PERIOD     15   STEP        7
 -----------------------------------------------
   NUMBER   CELLID                    RATE      
 -----------------------------------------------
     1      (1,1,1)              -5247.9462     
     2      (1,1,2)              -5247.9443     
     3      (1,1,3)              -5247.9425     
     4      (1,1,4)              -5247.9260     
     5      (1,1,5)              -5247.7673     
     6      (1,1,6)              -5247.9288     
     7      (1,1,7)              -5247.9479     
     8      (1,1,8)              -5247.9514     
     9      (1,1,9)              -5247.9536     
     10     (1,21,1)             -5247.9507     
     11     (1,21,2)             -5247.9481     
     12     (1,21,3)             -5247.9454     
     13     (1,21,4)             -5247.9435     
     14     (1,21,5)             -5247.9420     
     15     (1,21,6)             -5247.9409     
     16     (1,21,7)             -5247.9411     
     17     (1,21,8)             -5247.9439     
     18     (1,21,9)             -5247.9479     
 -----------------------------------------------




 HEAD WILL BE SAVED ON UNIT 1016 AT END OF TIME STEP    7, STRESS PERIOD   15


  VOLUME BUDGET FOR ENTIRE MODEL AT END OF TIME STEP    7, STRESS PERIOD  15
  ---------------------------------------------------------------------------------------------------

     CUMULATIVE VOLUME      L**3       RATES FOR THIS TIME STEP      L**3/T          PACKAGE NAME    
     ------------------                 ------------------------                     ----------------

           IN:                                      IN:
           ---                                      ---
              STO-SS =    19432949.6230                STO-SS =       32354.9604     STORAGE                          
              STO-SY =      586034.9826                STO-SY =        1020.8191     STORAGE                          
                 WEL =           0.0000                   WEL =           0.0000     WEL-1                            
                RCHA =    42408969.6069                  RCHA =      256500.0000     RCH-1                            
                 CHD =           0.0000                   CHD =           0.0000     CHD-FROM-IBOUND                  

            TOTAL IN =    62427954.2125              TOTAL IN =      289875.7796

          OUT:                                     OUT:
          ----                                     ----
              STO-SS =    19768320.6720                STO-SS =      150885.8492     STORAGE                          
              STO-SY =      591164.9496                STO-SY =        4527.1200     STORAGE                          
                 WEL =     2116764.5391                   WEL =       40000.0000     WEL-1                            
                RCHA =           0.0000                  RCHA =           0.0000     RCH-1                            
                 CHD =    39951708.0685                   CHD =       94462.8113     CHD-FROM-IBOUND                  

           TOTAL OUT =    62427958.2292             TOTAL OUT =      289875.7805

            IN - OUT =          -4.0167              IN - OUT =      -9.6013E-04

 PERCENT DISCREPANCY =          -0.00     PERCENT DISCREPANCY =          -0.00




         TIME SUMMARY AT END OF TIME STEP    7 IN STRESS PERIOD   15
                    SECONDS     MINUTES      HOURS       DAYS        YEARS
                    -----------------------------------------------------------
   TIME STEP LENGTH 4.37824E+05  7297.1      121.62      5.0674     1.38738E-02
 STRESS PERIOD TIME 1.89381E+06  31564.      526.06      21.919     6.00113E-02
         TOTAL TIME 3.61946E+07 6.03244E+05  10054.      418.92      1.1469    


end timestep


start timestep kper="15" kstp="8" mode="normal"

 UBDSV1 SAVING     FLOW-JA-FACE ON UNIT   1015 AT TIME STEP      8, STRESS PERIOD     15
 UBDSV06 SAVING              WEL IN MODEL MUMODEL          PACKAGE MUMODEL         CONNECTED TO MODEL MUMODEL          PACKAGE WEL-1            ON UNIT   1015 AT TIME STEP      8, STRESS PERIOD     15
 UBDSV06 SAVING             RCHA IN MODEL MUMODEL          PACKAGE MUMODEL         CONNECTED TO MODEL MUMODEL          PACKAGE RCH-1            ON UNIT   1015 AT TIME STEP      8, STRESS PERIOD     15

 WEL PACKAGE (WEL-1) FLOW RATES   PERIOD     15   STEP        8
 -----------------------------------------------
   NUMBER   CELLID                    RATE      
 -----------------------------------------------
     1      (1,5,5)              -40000.000     
     2      (1,11,5)              0.0000000     
     3      (1,5,5)               0.0000000     
 -----------------------------------------------




 CHD PACKAGE (CHD-FROM-IBOUND) FLOW RATES   PERIOD     15   STEP        8
 -----------------------------------------------
   NUMBER   CELLID                    RATE      
 -----------------------------------------------
     1      (1,1,1)              -5258.7176     
     2      (1,1,2)              -5258.7157     
     3      (1,1,3)              -5258.7132     
     4      (1,1,4)              -5258.6866     
     5      (1,1,5)              -5258.4580     
     6      (1,1,6)              -5258.6894     
     7      (1,1,7)              -5258.7185     
     8      (1,1,8)              -5258.7227     
     9      (1,1,9)              -5258.7249     
     10     (1,21,1)             -5258.7219     
     11     (1,21,2)             -5258.7194     
     12     (1,21,3)             -5258.7168     
     13     (1,21,4)             -5258.7149     
     14     (1,21,5)             -5258.7134     
     15     (1,21,6)             -5258.7123     
     16     (1,21,7)             -5258.7125     
     17     (1,21,8)             -5258.7153     
     18     (1,21,9)             -5258.7193     
 -----------------------------------------------




 HEAD WILL BE SAVED ON UNIT 1016 AT END OF TIME STEP    8, STRESS PERIOD   15


  VOLUME BUDGET FOR ENTIRE MODEL AT END OF TIME STEP    8, STRESS PERIOD  15
  ---------------------------------------------------------------------------------------------------

     CUMULATIVE VOLUME      L**3       RATES FOR THIS TIME STEP      L**3/T          PACKAGE NAME    
     ------------------                 ------------------------                     ----------------

           IN:                                      IN:
           ---                                      ---
              STO-SS =    19627511.2182                STO-SS =       31995.5971     STORAGE                          
              STO-SY =      592193.2938                STO-SY =        1012.7325     STORAGE                          
                 WEL =           0.0000                   WEL =           0.0000     WEL-1                            
                RCHA =    43968717.0000                  RCHA =      256500.0000     RCH-1                            
                 CHD =           0.0000                   CHD =           0.0000     CHD-FROM-IBOUND                  

            TOTAL IN =    64188421.5120              TOTAL IN =      289508.3296

          OUT:                                     OUT:
          ----                                     ----
              STO-SS =    20682544.7528                STO-SS =      150343.8812     STORAGE                          
              STO-SY =      618576.7203                STO-SY =        4507.8576     STORAGE                          
                 WEL =     2360000.0000                   WEL =       40000.0000     WEL-1                            
                RCHA =           0.0000                  RCHA =           0.0000     RCH-1                            
                 CHD =    40527304.0652                   CHD =       94656.5923     CHD-FROM-IBOUND                  

           TOTAL OUT =    64188425.5383             TOTAL OUT =      289508.3311

            IN - OUT =          -4.0263              IN - OUT =      -1.5724E-03

 PERCENT DISCREPANCY =          -0.00     PERCENT DISCREPANCY =          -0.00




         TIME SUMMARY AT END OF TIME STEP    8 IN STRESS PERIOD   15
                    SECONDS     MINUTES      HOURS       DAYS        YEARS
                    -----------------------------------------------------------
   TIME STEP LENGTH 5.25389E+05  8756.5      145.94      6.0809     1.66486E-02
 STRESS PERIOD TIME 2.41920E+06  40320.      672.00      28.000     7.66598E-02
         TOTAL TIME 3.67200E+07 6.12000E+05  10200.      425.00      1.1636    


end timestep


start timestep kper="16" kstp="1" mode="normal"


 OUTPUT CONTROL FOR STRESS PERIOD 16 IS REPEATED USING SETTINGS FROM A PREVIOUS STRESS PERIOD.


 STRESS PERIOD 16 IS TRANSIENT


 REUSING WELS FROM LAST STRESS PERIOD

 REUSING CHDS FROM LAST STRESS PERIOD
 UBDSV1 SAVING     FLOW-JA-FACE ON UNIT   1015 AT TIME STEP      1, STRESS PERIOD     16
 UBDSV06 SAVING              WEL IN MODEL MUMODEL          PACKAGE MUMODEL         CONNECTED TO MODEL MUMODEL          PACKAGE WEL-1            ON UNIT   1015 AT TIME STEP      1, STRESS PERIOD     16
 UBDSV06 SAVING             RCHA IN MODEL MUMODEL          PACKAGE MUMODEL         CONNECTED TO MODEL MUMODEL          PACKAGE RCH-1            ON UNIT   1015 AT TIME STEP      1, STRESS PERIOD     16

 WEL PACKAGE (WEL-1) FLOW RATES   PERIOD     16   STEP        1
 -----------------------------------------------
   NUMBER   CELLID                    RATE      
 -----------------------------------------------
     1      (1,5,5)              -40000.000     
     2      (1,11,5)              0.0000000     
     3      (1,5,5)               0.0000000     
 -----------------------------------------------




 CHD PACKAGE (CHD-FROM-IBOUND) FLOW RATES   PERIOD     16   STEP        1
 -----------------------------------------------
   NUMBER   CELLID                    RATE      
 -----------------------------------------------
     1      (1,1,1)              -5263.7809     
     2      (1,1,2)              -5263.7790     
     3      (1,1,3)              -5263.7763     
     4      (1,1,4)              -5263.7463     
     5      (1,1,5)              -5263.4944     
     6      (1,1,6)              -5263.7490     
     7      (1,1,7)              -5263.7816     
     8      (1,1,8)              -5263.7860     
     9      (1,1,9)              -5263.7882     
     10     (1,21,1)             -5263.7853     
     11     (1,21,2)             -5263.7827     
     12     (1,21,3)             -5263.7801     
     13     (1,21,4)             -5263.7782     
     14     (1,21,5)             -5263.7768     
     15     (1,21,6)             -5263.7756     
     16     (1,21,7)             -5263.7759     
     17     (1,21,8)             -5263.7787     
     18     (1,21,9)             -5263.7826     
 -----------------------------------------------




 HEAD WILL BE SAVED ON UNIT 1016 AT END OF TIME STEP    1, STRESS PERIOD   16


  VOLUME BUDGET FOR ENTIRE MODEL AT END OF TIME STEP    1, STRESS PERIOD  16
  ---------------------------------------------------------------------------------------------------

     CUMULATIVE VOLUME      L**3       RATES FOR THIS TIME STEP      L**3/T          PACKAGE NAME    
     ------------------                 ------------------------                     ----------------

           IN:                                      IN:
           ---                                      ---
              STO-SS =    19682854.9684                STO-SS =       29455.5235     STORAGE                          
              STO-SY =      593954.7469                STO-SY =         937.4956     STORAGE                          
                 WEL =           0.0000                   WEL =           0.0000     WEL-1                            
                RCHA =    44611298.0964                  RCHA =      342000.0000     RCH-1                            
                 CHD =           0.0000                   CHD =           0.0000     CHD-FROM-IBOUND                  

            TOTAL IN =    64888107.8117              TOTAL IN =      372393.0191

          OUT:                                     OUT:
          ----                                     ----
              STO-SS =    21116058.5129                STO-SS =      230728.3964     STORAGE                          
              STO-SY =      631572.8782                STO-SY =        6916.9262     STORAGE                          
                 WEL =     2435155.6838                   WEL =       40000.0000     WEL-1                            
                RCHA =           0.0000                  RCHA =           0.0000     RCH-1                            
                 CHD =    40705324.7651                   CHD =       94747.6976     CHD-FROM-IBOUND                  

           TOTAL OUT =    64888111.8400             TOTAL OUT =      372393.0202

            IN - OUT =          -4.0283              IN - OUT =      -1.0922E-03

 PERCENT DISCREPANCY =          -0.00     PERCENT DISCREPANCY =          -0.00




         TIME SUMMARY AT END OF TIME STEP    1 IN STRESS PERIOD   16
                    SECONDS     MINUTES      HOURS       DAYS        YEARS
                    -----------------------------------------------------------
   TIME STEP LENGTH 1.62336E+05  2705.6      45.093      1.8789     5.14413E-03
 STRESS PERIOD TIME 1.62336E+05  2705.6      45.093      1.8789     5.14413E-03
         TOTAL TIME 3.68823E+07 6.14706E+05  10245.      426.88      1.1687    


end timestep


start timestep kper="16" kstp="2" mode="normal"

 UBDSV1 SAVING     FLOW-JA-FACE ON UNIT   1015 AT TIME STEP      2, STRESS PERIOD     16
 UBDSV06 SAVING              WEL IN MODEL MUMODEL          PACKAGE MUMODEL         CONNECTED TO MODEL MUMODEL          PACKAGE WEL-1            ON UNIT   1015 AT TIME STEP      2, STRESS PERIOD     16
 UBDSV06 SAVING             RCHA IN MODEL MUMODEL          PACKAGE MUMODEL         CONNECTED TO MODEL MUMODEL          PACKAGE RCH-1            ON UNIT   1015 AT TIME STEP      2, STRESS PERIOD     16

 WEL PACKAGE (WEL-1) FLOW RATES   PERIOD     16   STEP        2
 -----------------------------------------------
   NUMBER   CELLID                    RATE      
 -----------------------------------------------
     1      (1,5,5)              -40000.000     
     2      (1,11,5)              0.0000000     
     3      (1,5,5)               0.0000000     
 -----------------------------------------------




 CHD PACKAGE (CHD-FROM-IBOUND) FLOW RATES   PERIOD     16   STEP        2
 -----------------------------------------------
   NUMBER   CELLID                    RATE      
 -----------------------------------------------
     1      (1,1,1)              -5269.8310     
     2      (1,1,2)              -5269.8291     
     3      (1,1,3)              -5269.8260     
     4      (1,1,4)              -5269.7914     
     5      (1,1,5)              -5269.5095     
     6      (1,1,6)              -5269.7942     
     7      (1,1,7)              -5269.8313     
     8      (1,1,8)              -5269.8360     
     9      (1,1,9)              -5269.8382     
     10     (1,21,1)             -5269.8353     
     11     (1,21,2)             -5269.8328     
     12     (1,21,3)             -5269.8302     
     13     (1,21,4)             -5269.8283     
     14     (1,21,5)             -5269.8268     
     15     (1,21,6)             -5269.8257     
     16     (1,21,7)             -5269.8260     
     17     (1,21,8)             -5269.8288     
     18     (1,21,9)             -5269.8327     
 -----------------------------------------------




 HEAD WILL BE SAVED ON UNIT 1016 AT END OF TIME STEP    2, STRESS PERIOD   16


  VOLUME BUDGET FOR ENTIRE MODEL AT END OF TIME STEP    2, STRESS PERIOD  16
  ---------------------------------------------------------------------------------------------------

     CUMULATIVE VOLUME      L**3       RATES FOR THIS TIME STEP      L**3/T          PACKAGE NAME    
     ------------------                 ------------------------                     ----------------

           IN:                                      IN:
           ---                                      ---
              STO-SS =    19748957.6579                STO-SS =       29318.1151     STORAGE                          
              STO-SY =      596060.9067                STO-SY =         934.1320     STORAGE                          
                 WEL =           0.0000                   WEL =           0.0000     WEL-1                            
                RCHA =    45382395.4120                  RCHA =      342000.0000     RCH-1                            
                 CHD =           0.0000                   CHD =           0.0000     CHD-FROM-IBOUND                  

            TOTAL IN =    65727413.9767              TOTAL IN =      372252.2471

          OUT:                                     OUT:
          ----                                     ----
              STO-SS =    21635732.7799                STO-SS =      230487.8979     STORAGE                          
              STO-SY =      647147.6828                STO-SY =        6907.7963     STORAGE                          
                 WEL =     2525342.5043                   WEL =       40000.0000     WEL-1                            
                RCHA =           0.0000                  RCHA =           0.0000     RCH-1                            
                 CHD =    40919195.0382                   CHD =       94856.5530     CHD-FROM-IBOUND                  

           TOTAL OUT =    65727418.0052             TOTAL OUT =      372252.2471

            IN - OUT =          -4.0285              IN - OUT =      -8.1849E-05

 PERCENT DISCREPANCY =          -0.00     PERCENT DISCREPANCY =          -0.00




         TIME SUMMARY AT END OF TIME STEP    2 IN STRESS PERIOD   16
                    SECONDS     MINUTES      HOURS       DAYS        YEARS
                    -----------------------------------------------------------
   TIME STEP LENGTH 1.94804E+05  3246.7      54.112      2.2547     6.17295E-03
 STRESS PERIOD TIME 3.57140E+05  5952.3      99.206      4.1336     1.13171E-02
         TOTAL TIME 3.70771E+07 6.17952E+05  10299.      429.13      1.1749    


end timestep


start timestep kper="16" kstp="3" mode="normal"

 UBDSV1 SAVING     FLOW-JA-FACE ON UNIT   1015 AT TIME STEP      3, STRESS PERIOD     16
 UBDSV06 SAVING              WEL IN MODEL MUMODEL          PACKAGE MUMODEL         CONNECTED TO MODEL MUMODEL          PACKAGE WEL-1            ON UNIT   1015 AT TIME STEP      3, STRESS PERIOD     16
 UBDSV06 SAVING             RCHA IN MODEL MUMODEL          PACKAGE MUMODEL         CONNECTED TO MODEL MUMODEL          PACKAGE RCH-1            ON UNIT   1015 AT TIME STEP      3, STRESS PERIOD     16

 WEL PACKAGE (WEL-1) FLOW RATES   PERIOD     16   STEP        3
 -----------------------------------------------
   NUMBER   CELLID                    RATE      
 -----------------------------------------------
     1      (1,5,5)              -40000.000     
     2      (1,11,5)              0.0000000     
     3      (1,5,5)               0.0000000     
 -----------------------------------------------




 CHD PACKAGE (CHD-FROM-IBOUND) FLOW RATES   PERIOD     16   STEP        3
 -----------------------------------------------
   NUMBER   CELLID                    RATE      
 -----------------------------------------------
     1      (1,1,1)              -5277.0547     
     2      (1,1,2)              -5277.0528     
     3      (1,1,3)              -5277.0492     
     4      (1,1,4)              -5277.0084     
     5      (1,1,5)              -5276.6869     
     6      (1,1,6)              -5277.0112     
     7      (1,1,7)              -5277.0545     
     8      (1,1,8)              -5277.0598     
     9      (1,1,9)              -5277.0620     
     10     (1,21,1)             -5277.0590     
     11     (1,21,2)             -5277.0565     
     12     (1,21,3)             -5277.0539     
     13     (1,21,4)             -5277.0521     
     14     (1,21,5)             -5277.0506     
     15     (1,21,6)             -5277.0495     
     16     (1,21,7)             -5277.0498     
     17     (1,21,8)             -5277.0526     
     18     (1,21,9)             -5277.0565     
 -----------------------------------------------




 HEAD WILL BE SAVED ON UNIT 1016 AT END OF TIME STEP    3, STRESS PERIOD   16


  VOLUME BUDGET FOR ENTIRE MODEL AT END OF TIME STEP    3, STRESS PERIOD  16
  ---------------------------------------------------------------------------------------------------

     CUMULATIVE VOLUME      L**3       RATES FOR THIS TIME STEP      L**3/T          PACKAGE NAME    
     ------------------                 ------------------------                     ----------------

           IN:                                      IN:
           ---                                      ---
              STO-SS =    19827826.4409                STO-SS =       29150.1509     STORAGE                          
              STO-SY =      598576.9665                STO-SY =         929.9436     STORAGE                          
                 WEL =           0.0000                   WEL =           0.0000     WEL-1                            
                RCHA =    46307712.1908                  RCHA =      342000.0000     RCH-1                            
                 CHD =           0.0000                   CHD =           0.0000     CHD-FROM-IBOUND                  

            TOTAL IN =    66734115.5982              TOTAL IN =      372080.0946

          OUT:                                     OUT:
          ----                                     ----
              STO-SS =    22258554.2972                STO-SS =      230196.7972     STORAGE                          
              STO-SY =      665807.6363                STO-SY =        6896.7777     STORAGE                          
                 WEL =     2633566.6890                   WEL =       40000.0000     WEL-1                            
                RCHA =           0.0000                  RCHA =           0.0000     RCH-1                            
                 CHD =    41176191.0046                   CHD =       94986.5198     CHD-FROM-IBOUND                  

           TOTAL OUT =    66734119.6271             TOTAL OUT =      372080.0947

            IN - OUT =          -4.0289              IN - OUT =      -1.3488E-04

 PERCENT DISCREPANCY =          -0.00     PERCENT DISCREPANCY =          -0.00




         TIME SUMMARY AT END OF TIME STEP    3 IN STRESS PERIOD   16
                    SECONDS     MINUTES      HOURS       DAYS        YEARS
                    -----------------------------------------------------------
   TIME STEP LENGTH 2.33764E+05  3896.1      64.935      2.7056     7.40754E-03
 STRESS PERIOD TIME 5.90904E+05  9848.4      164.14      6.8392     1.87246E-02
         TOTAL TIME 3.73109E+07 6.21848E+05  10364.      431.84      1.1823    


end timestep


start timestep kper="16" kstp="4" mode="normal"

 UBDSV1 SAVING     FLOW-JA-FACE ON UNIT   1015 AT TIME STEP      4, STRESS PERIOD     16
 UBDSV06 SAVING              WEL IN MODEL MUMODEL          PACKAGE MUMODEL         CONNECTED TO MODEL MUMODEL          PACKAGE WEL-1            ON UNIT   1015 AT TIME STEP      4, STRESS PERIOD     16
 UBDSV06 SAVING             RCHA IN MODEL MUMODEL          PACKAGE MUMODEL         CONNECTED TO MODEL MUMODEL          PACKAGE RCH-1            ON UNIT   1015 AT TIME STEP      4, STRESS PERIOD     16

 WEL PACKAGE (WEL-1) FLOW RATES   PERIOD     16   STEP        4
 -----------------------------------------------
   NUMBER   CELLID                    RATE      
 -----------------------------------------------
     1      (1,5,5)              -40000.000     
     2      (1,11,5)              0.0000000     
     3      (1,5,5)               0.0000000     
 -----------------------------------------------




 CHD PACKAGE (CHD-FROM-IBOUND) FLOW RATES   PERIOD     16   STEP        4
 -----------------------------------------------
   NUMBER   CELLID                    RATE      
 -----------------------------------------------
     1      (1,1,1)              -5285.6716     
     2      (1,1,2)              -5285.6697     
     3      (1,1,3)              -5285.6654     
     4      (1,1,4)              -5285.6159     
     5      (1,1,5)              -5285.2414     
     6      (1,1,6)              -5285.6186     
     7      (1,1,7)              -5285.6706     
     8      (1,1,8)              -5285.6765     
     9      (1,1,9)              -5285.6788     
     10     (1,21,1)             -5285.6758     
     11     (1,21,2)             -5285.6733     
     12     (1,21,3)             -5285.6708     
     13     (1,21,4)             -5285.6689     
     14     (1,21,5)             -5285.6675     
     15     (1,21,6)             -5285.6664     
     16     (1,21,7)             -5285.6667     
     17     (1,21,8)             -5285.6694     
     18     (1,21,9)             -5285.6733     
 -----------------------------------------------




 HEAD WILL BE SAVED ON UNIT 1016 AT END OF TIME STEP    4, STRESS PERIOD   16


  VOLUME BUDGET FOR ENTIRE MODEL AT END OF TIME STEP    4, STRESS PERIOD  16
  ---------------------------------------------------------------------------------------------------

     CUMULATIVE VOLUME      L**3       RATES FOR THIS TIME STEP      L**3/T          PACKAGE NAME    
     ------------------                 ------------------------                     ----------------

           IN:                                      IN:
           ---                                      ---
              STO-SS =    19921801.4409                STO-SS =       28944.5470     STORAGE                          
              STO-SY =      601579.2612                STO-SY =         924.7147     STORAGE                          
                 WEL =           0.0000                   WEL =           0.0000     WEL-1                            
                RCHA =    47418092.3254                  RCHA =      342000.0000     RCH-1                            
                 CHD =           0.0000                   CHD =           0.0000     CHD-FROM-IBOUND                  

            TOTAL IN =    67941473.0274              TOTAL IN =      371869.2617

          OUT:                                     OUT:
          ----                                     ----
              STO-SS =    23004795.4781                STO-SS =      229844.2452     STORAGE                          
              STO-SY =      688156.3940                STO-SY =        6883.4761     STORAGE                          
                 WEL =     2763435.7106                   WEL =       40000.0000     WEL-1                            
                RCHA =           0.0000                  RCHA =           0.0000     RCH-1                            
                 CHD =    41485089.4744                   CHD =       95141.5406     CHD-FROM-IBOUND                  

           TOTAL OUT =    67941477.0570             TOTAL OUT =      371869.2619

            IN - OUT =          -4.0296              IN - OUT =      -2.2204E-04

 PERCENT DISCREPANCY =          -0.00     PERCENT DISCREPANCY =          -0.00




         TIME SUMMARY AT END OF TIME STEP    4 IN STRESS PERIOD   16
                    SECONDS     MINUTES      HOURS       DAYS        YEARS
                    -----------------------------------------------------------
   TIME STEP LENGTH 2.80517E+05  4675.3      77.921      3.2467     8.88905E-03
 STRESS PERIOD TIME 8.71421E+05  14524.      242.06      10.086     2.76137E-02
         TOTAL TIME 3.75914E+07 6.26524E+05  10442.      435.09      1.1912    


end timestep


start timestep kper="16" kstp="5" mode="normal"

 UBDSV1 SAVING     FLOW-JA-FACE ON UNIT   1015 AT TIME STEP      5, STRESS PERIOD     16
 UBDSV06 SAVING              WEL IN MODEL MUMODEL          PACKAGE MUMODEL         CONNECTED TO MODEL MUMODEL          PACKAGE WEL-1            ON UNIT   1015 AT TIME STEP      5, STRESS PERIOD     16
 UBDSV06 SAVING             RCHA IN MODEL MUMODEL          PACKAGE MUMODEL         CONNECTED TO MODEL MUMODEL          PACKAGE RCH-1            ON UNIT   1015 AT TIME STEP      5, STRESS PERIOD     16

 WEL PACKAGE (WEL-1) FLOW RATES   PERIOD     16   STEP        5
 -----------------------------------------------
   NUMBER   CELLID                    RATE      
 -----------------------------------------------
     1      (1,5,5)              -40000.000     
     2      (1,11,5)              0.0000000     
     3      (1,5,5)               0.0000000     
 -----------------------------------------------




 CHD PACKAGE (CHD-FROM-IBOUND) FLOW RATES   PERIOD     16   STEP        5
 -----------------------------------------------
   NUMBER   CELLID                    RATE      
 -----------------------------------------------
     1      (1,1,1)              -5295.9385     
     2      (1,1,2)              -5295.9365     
     3      (1,1,3)              -5295.9312     
     4      (1,1,4)              -5295.8694     
     5      (1,1,5)              -5295.4232     
     6      (1,1,6)              -5295.8721     
     7      (1,1,7)              -5295.9364     
     8      (1,1,8)              -5295.9434     
     9      (1,1,9)              -5295.9457     
     10     (1,21,1)             -5295.9427     
     11     (1,21,2)             -5295.9402     
     12     (1,21,3)             -5295.9377     
     13     (1,21,4)             -5295.9358     
     14     (1,21,5)             -5295.9344     
     15     (1,21,6)             -5295.9333     
     16     (1,21,7)             -5295.9336     
     17     (1,21,8)             -5295.9364     
     18     (1,21,9)             -5295.9402     
 -----------------------------------------------




 HEAD WILL BE SAVED ON UNIT 1016 AT END OF TIME STEP    5, STRESS PERIOD   16


  VOLUME BUDGET FOR ENTIRE MODEL AT END OF TIME STEP    5, STRESS PERIOD  16
  ---------------------------------------------------------------------------------------------------

     CUMULATIVE VOLUME      L**3       RATES FOR THIS TIME STEP      L**3/T          PACKAGE NAME    
     ------------------                 ------------------------                     ----------------

           IN:                                      IN:
           ---                                      ---
              STO-SS =    20033589.8788                STO-SS =       28692.6106     STORAGE                          
              STO-SY =      605156.5307                STO-SY =         918.1737     STORAGE                          
                 WEL =           0.0000                   WEL =           0.0000     WEL-1                            
                RCHA =    48750548.4868                  RCHA =      342000.0000     RCH-1                            
                 CHD =           0.0000                   CHD =           0.0000     CHD-FROM-IBOUND                  

            TOTAL IN =    69389294.8963              TOTAL IN =      371610.7843

          OUT:                                     OUT:
          ----                                     ----
              STO-SS =    23898620.8459                STO-SS =      229417.1355     STORAGE                          
              STO-SY =      714912.3406                STO-SY =        6867.4182     STORAGE                          
                 WEL =     2919278.5365                   WEL =       40000.0000     WEL-1                            
                RCHA =           0.0000                  RCHA =           0.0000     RCH-1                            
                 CHD =    41856487.2045                   CHD =       95326.2309     CHD-FROM-IBOUND                  

           TOTAL OUT =    69389298.9274             TOTAL OUT =      371610.7846

            IN - OUT =          -4.0311              IN - OUT =      -3.7162E-04

 PERCENT DISCREPANCY =          -0.00     PERCENT DISCREPANCY =          -0.00




         TIME SUMMARY AT END OF TIME STEP    5 IN STRESS PERIOD   16
                    SECONDS     MINUTES      HOURS       DAYS        YEARS
                    -----------------------------------------------------------
   TIME STEP LENGTH 3.36621E+05  5610.3      93.506      3.8961     1.06669E-02
 STRESS PERIOD TIME 1.20804E+06  20134.      335.57      13.982     3.82805E-02
         TOTAL TIME 3.79280E+07 6.32134E+05  10536.      438.98      1.2019    


end timestep


start timestep kper="16" kstp="6" mode="normal"

 UBDSV1 SAVING     FLOW-JA-FACE ON UNIT   1015 AT TIME STEP      6, STRESS PERIOD     16
 UBDSV06 SAVING              WEL IN MODEL MUMODEL          PACKAGE MUMODEL         CONNECTED TO MODEL MUMODEL          PACKAGE WEL-1            ON UNIT   1015 AT TIME STEP      6, STRESS PERIOD     16
 UBDSV06 SAVING             RCHA IN MODEL MUMODEL          PACKAGE MUMODEL         CONNECTED TO MODEL MUMODEL          PACKAGE RCH-1            ON UNIT   1015 AT TIME STEP      6, STRESS PERIOD     16

 WEL PACKAGE (WEL-1) FLOW RATES   PERIOD     16   STEP        6
 -----------------------------------------------
   NUMBER   CELLID                    RATE      
 -----------------------------------------------
     1      (1,5,5)              -40000.000     
     2      (1,11,5)              0.0000000     
     3      (1,5,5)               0.0000000     
 -----------------------------------------------




 CHD PACKAGE (CHD-FROM-IBOUND) FLOW RATES   PERIOD     16   STEP        6
 -----------------------------------------------
   NUMBER   CELLID                    RATE      
 -----------------------------------------------
     1      (1,1,1)              -5308.1551     
     2      (1,1,2)              -5308.1530     
     3      (1,1,3)              -5308.1460     
     4      (1,1,4)              -5308.0663     
     5      (1,1,5)              -5307.5217     
     6      (1,1,6)              -5308.0690     
     7      (1,1,7)              -5308.1512     
     8      (1,1,8)              -5308.1598     
     9      (1,1,9)              -5308.1621     
     10     (1,21,1)             -5308.1592     
     11     (1,21,2)             -5308.1567     
     12     (1,21,3)             -5308.1542     
     13     (1,21,4)             -5308.1524     
     14     (1,21,5)             -5308.1510     
     15     (1,21,6)             -5308.1499     
     16     (1,21,7)             -5308.1502     
     17     (1,21,8)             -5308.1530     
     18     (1,21,9)             -5308.1568     
 -----------------------------------------------




 HEAD WILL BE SAVED ON UNIT 1016 AT END OF TIME STEP    6, STRESS PERIOD   16


  VOLUME BUDGET FOR ENTIRE MODEL AT END OF TIME STEP    6, STRESS PERIOD  16
  ---------------------------------------------------------------------------------------------------

     CUMULATIVE VOLUME      L**3       RATES FOR THIS TIME STEP      L**3/T          PACKAGE NAME    
     ------------------                 ------------------------                     ----------------

           IN:                                      IN:
           ---                                      ---
              STO-SS =    20166292.0752                STO-SS =       28383.7675     STORAGE                          
              STO-SY =      609410.9593                STO-SY =         909.9828     STORAGE                          
                 WEL =           0.0000                   WEL =           0.0000     WEL-1                            
                RCHA =    50349495.8805                  RCHA =      342000.0000     RCH-1                            
                 CHD =           0.0000                   CHD =           0.0000     CHD-FROM-IBOUND                  

            TOTAL IN =    71125198.9150              TOTAL IN =      371293.7503

          OUT:                                     OUT:
          ----                                     ----
              STO-SS =    24968792.3350                STO-SS =      228899.7441     STORAGE                          
              STO-SY =      746928.8742                STO-SY =        6848.0392     STORAGE                          
                 WEL =     3106289.9275                   WEL =       40000.0000     WEL-1                            
                RCHA =           0.0000                  RCHA =           0.0000     RCH-1                            
                 CHD =    42303191.8123                   CHD =       95545.9676     CHD-FROM-IBOUND                  

           TOTAL OUT =    71125202.9490             TOTAL OUT =      371293.7509

            IN - OUT =          -4.0339              IN - OUT =      -6.1579E-04

 PERCENT DISCREPANCY =          -0.00     PERCENT DISCREPANCY =          -0.00




         TIME SUMMARY AT END OF TIME STEP    6 IN STRESS PERIOD   16
                    SECONDS     MINUTES      HOURS       DAYS        YEARS
                    -----------------------------------------------------------
   TIME STEP LENGTH 4.03945E+05  6732.4      112.21      4.6753     1.28002E-02
 STRESS PERIOD TIME 1.61199E+06  26866.      447.77      18.657     5.10808E-02
         TOTAL TIME 3.83320E+07 6.38866E+05  10648.      443.66      1.2147    


end timestep


start timestep kper="16" kstp="7" mode="normal"

 UBDSV1 SAVING     FLOW-JA-FACE ON UNIT   1015 AT TIME STEP      7, STRESS PERIOD     16
 UBDSV06 SAVING              WEL IN MODEL MUMODEL          PACKAGE MUMODEL         CONNECTED TO MODEL MUMODEL          PACKAGE WEL-1            ON UNIT   1015 AT TIME STEP      7, STRESS PERIOD     16
 UBDSV06 SAVING             RCHA IN MODEL MUMODEL          PACKAGE MUMODEL         CONNECTED TO MODEL MUMODEL          PACKAGE RCH-1            ON UNIT   1015 AT TIME STEP      7, STRESS PERIOD     16

 WEL PACKAGE (WEL-1) FLOW RATES   PERIOD     16   STEP        7
 -----------------------------------------------
   NUMBER   CELLID                    RATE      
 -----------------------------------------------
     1      (1,5,5)              -40000.000     
     2      (1,11,5)              0.0000000     
     3      (1,5,5)               0.0000000     
 -----------------------------------------------




 CHD PACKAGE (CHD-FROM-IBOUND) FLOW RATES   PERIOD     16   STEP        7
 -----------------------------------------------
   NUMBER   CELLID                    RATE      
 -----------------------------------------------
     1      (1,1,1)              -5322.6685     
     2      (1,1,2)              -5322.6663     
     3      (1,1,3)              -5322.6568     
     4      (1,1,4)              -5322.5503     
     5      (1,1,5)              -5321.8683     
     6      (1,1,6)              -5322.5530     
     7      (1,1,7)              -5322.6619     
     8      (1,1,8)              -5322.6731     
     9      (1,1,9)              -5322.6756     
     10     (1,21,1)             -5322.6726     
     11     (1,21,2)             -5322.6702     
     12     (1,21,3)             -5322.6677     
     13     (1,21,4)             -5322.6659     
     14     (1,21,5)             -5322.6645     
     15     (1,21,6)             -5322.6634     
     16     (1,21,7)             -5322.6638     
     17     (1,21,8)             -5322.6665     
     18     (1,21,9)             -5322.6702     
 -----------------------------------------------




 HEAD WILL BE SAVED ON UNIT 1016 AT END OF TIME STEP    7, STRESS PERIOD   16


  VOLUME BUDGET FOR ENTIRE MODEL AT END OF TIME STEP    7, STRESS PERIOD  16
  ---------------------------------------------------------------------------------------------------

     CUMULATIVE VOLUME      L**3       RATES FOR THIS TIME STEP      L**3/T          PACKAGE NAME    
     ------------------                 ------------------------                     ----------------

           IN:                                      IN:
           ---                                      ---
              STO-SS =    20323411.4948                STO-SS =       28005.3207     STORAGE                          
              STO-SY =      614458.7362                STO-SY =         899.7272     STORAGE                          
                 WEL =           0.0000                   WEL =           0.0000     WEL-1                            
                RCHA =    52268232.7530                  RCHA =      342000.0000     RCH-1                            
                 CHD =           0.0000                   CHD =           0.0000     CHD-FROM-IBOUND                  

            TOTAL IN =    73206102.9839              TOTAL IN =      370905.0479

          OUT:                                     OUT:
          ----                                     ----
              STO-SS =    26249484.1088                STO-SS =      228273.3985     STORAGE                          
              STO-SY =      785217.6157                STO-SY =        6824.6719     STORAGE                          
                 WEL =     3330703.5968                   WEL =       40000.0000     WEL-1                            
                RCHA =           0.0000                  RCHA =           0.0000     RCH-1                            
                 CHD =    42840701.7022                   CHD =       95806.9785     CHD-FROM-IBOUND                  

           TOTAL OUT =    73206107.0235             TOTAL OUT =      370905.0489

            IN - OUT =          -4.0396              IN - OUT =      -1.0117E-03

 PERCENT DISCREPANCY =          -0.00     PERCENT DISCREPANCY =          -0.00




         TIME SUMMARY AT END OF TIME STEP    7 IN STRESS PERIOD   16
                    SECONDS     MINUTES      HOURS       DAYS        YEARS
                    -----------------------------------------------------------
   TIME STEP LENGTH 4.84734E+05  8078.9      134.65      5.6103     1.53603E-02
 STRESS PERIOD TIME 2.09672E+06  34945.      582.42      24.268     6.64410E-02
         TOTAL TIME 3.88167E+07 6.46945E+05  10782.      449.27      1.2300    


end timestep


start timestep kper="16" kstp="8" mode="normal"

 UBDSV1 SAVING     FLOW-JA-FACE ON UNIT   1015 AT TIME STEP      8, STRESS PERIOD     16
 UBDSV06 SAVING              WEL IN MODEL MUMODEL          PACKAGE MUMODEL         CONNECTED TO MODEL MUMODEL          PACKAGE WEL-1            ON UNIT   1015 AT TIME STEP      8, STRESS PERIOD     16
 UBDSV06 SAVING             RCHA IN MODEL MUMODEL          PACKAGE MUMODEL         CONNECTED TO MODEL MUMODEL          PACKAGE RCH-1            ON UNIT   1015 AT TIME STEP      8, STRESS PERIOD     16

 WEL PACKAGE (WEL-1) FLOW RATES   PERIOD     16   STEP        8
 -----------------------------------------------
   NUMBER   CELLID                    RATE      
 -----------------------------------------------
     1      (1,5,5)              -40000.000     
     2      (1,11,5)              0.0000000     
     3      (1,5,5)               0.0000000     
 -----------------------------------------------




 CHD PACKAGE (CHD-FROM-IBOUND) FLOW RATES   PERIOD     16   STEP        8
 -----------------------------------------------
   NUMBER   CELLID                    RATE      
 -----------------------------------------------
     1      (1,1,1)              -5339.8790     
     2      (1,1,2)              -5339.8766     
     3      (1,1,3)              -5339.8628     
     4      (1,1,4)              -5339.7154     
     5      (1,1,5)              -5338.8392     
     6      (1,1,6)              -5339.7180     
     7      (1,1,7)              -5339.8678     
     8      (1,1,8)              -5339.8832     
     9      (1,1,9)              -5339.8860     
     10     (1,21,1)             -5339.8830     
     11     (1,21,2)             -5339.8806     
     12     (1,21,3)             -5339.8782     
     13     (1,21,4)             -5339.8764     
     14     (1,21,5)             -5339.8750     
     15     (1,21,6)             -5339.8740     
     16     (1,21,7)             -5339.8743     
     17     (1,21,8)             -5339.8771     
     18     (1,21,9)             -5339.8807     
 -----------------------------------------------




 HEAD WILL BE SAVED ON UNIT 1016 AT END OF TIME STEP    8, STRESS PERIOD   16


  VOLUME BUDGET FOR ENTIRE MODEL AT END OF TIME STEP    8, STRESS PERIOD  16
  ---------------------------------------------------------------------------------------------------

     CUMULATIVE VOLUME      L**3       RATES FOR THIS TIME STEP      L**3/T          PACKAGE NAME    
     ------------------                 ------------------------                     ----------------

           IN:                                      IN:
           ---                                      ---
              STO-SS =    20508837.5662                STO-SS =       27542.3020     STORAGE                          
              STO-SY =      620429.7621                STO-SY =         886.9076     STORAGE                          
                 WEL =           0.0000                   WEL =           0.0000     WEL-1                            
                RCHA =    54570717.0000                  RCHA =      342000.0000     RCH-1                            
                 CHD =           0.0000                   CHD =           0.0000     CHD-FROM-IBOUND                  

            TOTAL IN =    75699984.3283              TOTAL IN =      370429.2096

          OUT:                                     OUT:
          ----                                     ----
              STO-SS =    27781216.7739                STO-SS =      227516.2456     STORAGE                          
              STO-SY =      830974.6995                STO-SY =        6796.5384     STORAGE                          
                 WEL =     3600000.0000                   WEL =       40000.0000     WEL-1                            
                RCHA =           0.0000                  RCHA =           0.0000     RCH-1                            
                 CHD =    43487796.9055                   CHD =       96116.4272     CHD-FROM-IBOUND                  

           TOTAL OUT =    75699988.3790             TOTAL OUT =      370429.2113

            IN - OUT =          -4.0507              IN - OUT =      -1.6411E-03

 PERCENT DISCREPANCY =          -0.00     PERCENT DISCREPANCY =          -0.00




         TIME SUMMARY AT END OF TIME STEP    8 IN STRESS PERIOD   16
                    SECONDS     MINUTES      HOURS       DAYS        YEARS
                    -----------------------------------------------------------
   TIME STEP LENGTH 5.81680E+05  9694.7      161.58      6.7324     1.84323E-02
 STRESS PERIOD TIME 2.67840E+06  44640.      744.00      31.000     8.48734E-02
         TOTAL TIME 3.93984E+07 6.56640E+05  10944.      456.00      1.2485    


end timestep


start timestep kper="17" kstp="1" mode="normal"


 OUTPUT CONTROL FOR STRESS PERIOD 17 IS REPEATED USING SETTINGS FROM A PREVIOUS STRESS PERIOD.


 STRESS PERIOD 17 IS TRANSIENT


 REUSING WELS FROM LAST STRESS PERIOD

 REUSING CHDS FROM LAST STRESS PERIOD
 UBDSV1 SAVING     FLOW-JA-FACE ON UNIT   1015 AT TIME STEP      1, STRESS PERIOD     17
 UBDSV06 SAVING              WEL IN MODEL MUMODEL          PACKAGE MUMODEL         CONNECTED TO MODEL MUMODEL          PACKAGE WEL-1            ON UNIT   1015 AT TIME STEP      1, STRESS PERIOD     17
 UBDSV06 SAVING             RCHA IN MODEL MUMODEL          PACKAGE MUMODEL         CONNECTED TO MODEL MUMODEL          PACKAGE RCH-1            ON UNIT   1015 AT TIME STEP      1, STRESS PERIOD     17

 WEL PACKAGE (WEL-1) FLOW RATES   PERIOD     17   STEP        1
 -----------------------------------------------
   NUMBER   CELLID                    RATE      
 -----------------------------------------------
     1      (1,5,5)              -40000.000     
     2      (1,11,5)              0.0000000     
     3      (1,5,5)               0.0000000     
 -----------------------------------------------




 CHD PACKAGE (CHD-FROM-IBOUND) FLOW RATES   PERIOD     17   STEP        1
 -----------------------------------------------
   NUMBER   CELLID                    RATE      
 -----------------------------------------------
     1      (1,1,1)              -5342.8234     
     2      (1,1,2)              -5342.8209     
     3      (1,1,3)              -5342.8059     
     4      (1,1,4)              -5342.6467     
     5      (1,1,5)              -5341.7157     
     6      (1,1,6)              -5342.6493     
     7      (1,1,7)              -5342.8109     
     8      (1,1,8)              -5342.8275     
     9      (1,1,9)              -5342.8304     
     10     (1,21,1)             -5342.8274     
     11     (1,21,2)             -5342.8250     
     12     (1,21,3)             -5342.8226     
     13     (1,21,4)             -5342.8208     
     14     (1,21,5)             -5342.8194     
     15     (1,21,6)             -5342.8184     
     16     (1,21,7)             -5342.8188     
     17     (1,21,8)             -5342.8215     
     18     (1,21,9)             -5342.8252     
 -----------------------------------------------




 HEAD WILL BE SAVED ON UNIT 1016 AT END OF TIME STEP    1, STRESS PERIOD   17


  VOLUME BUDGET FOR ENTIRE MODEL AT END OF TIME STEP    1, STRESS PERIOD  17
  ---------------------------------------------------------------------------------------------------

     CUMULATIVE VOLUME      L**3       RATES FOR THIS TIME STEP      L**3/T          PACKAGE NAME    
     ------------------                 ------------------------                     ----------------

           IN:                                      IN:
           ---                                      ---
              STO-SS =    20563095.8012                STO-SS =       29840.3740     STORAGE                          
              STO-SY =      622174.7196                STO-SY =         959.6734     STORAGE                          
                 WEL =           0.0000                   WEL =           0.0000     WEL-1                            
                RCHA =    55037106.5054                  RCHA =      256500.0000     RCH-1                            
                 CHD =           0.0000                   CHD =           0.0000     CHD-FROM-IBOUND                  

            TOTAL IN =    76222377.0263              TOTAL IN =      287300.0474

          OUT:                                     OUT:
          ----                                     ----
              STO-SS =    28048057.5748                STO-SS =      146754.3001     STORAGE                          
              STO-SY =      838932.2646                STO-SY =        4376.4180     STORAGE                          
                 WEL =     3672731.3069                   WEL =       40000.0000     WEL-1                            
                RCHA =           0.0000                  RCHA =           0.0000     RCH-1                            
                 CHD =    43662659.9318                   CHD =       96169.3300     CHD-FROM-IBOUND                  

           TOTAL OUT =    76222381.0781             TOTAL OUT =      287300.0480

            IN - OUT =          -4.0518              IN - OUT =      -6.4090E-04

 PERCENT DISCREPANCY =          -0.00     PERCENT DISCREPANCY =          -0.00




         TIME SUMMARY AT END OF TIME STEP    1 IN STRESS PERIOD   17
                    SECONDS     MINUTES      HOURS       DAYS        YEARS
                    -----------------------------------------------------------
   TIME STEP LENGTH 1.57100E+05  2618.3      43.639      1.8183     4.97819E-03
 STRESS PERIOD TIME 1.57100E+05  2618.3      43.639      1.8183     4.97819E-03
         TOTAL TIME 3.95555E+07 6.59258E+05  10988.      457.82      1.2534    


end timestep


start timestep kper="17" kstp="2" mode="normal"

 UBDSV1 SAVING     FLOW-JA-FACE ON UNIT   1015 AT TIME STEP      2, STRESS PERIOD     17
 UBDSV06 SAVING              WEL IN MODEL MUMODEL          PACKAGE MUMODEL         CONNECTED TO MODEL MUMODEL          PACKAGE WEL-1            ON UNIT   1015 AT TIME STEP      2, STRESS PERIOD     17
 UBDSV06 SAVING             RCHA IN MODEL MUMODEL          PACKAGE MUMODEL         CONNECTED TO MODEL MUMODEL          PACKAGE RCH-1            ON UNIT   1015 AT TIME STEP      2, STRESS PERIOD     17

 WEL PACKAGE (WEL-1) FLOW RATES   PERIOD     17   STEP        2
 -----------------------------------------------
   NUMBER   CELLID                    RATE      
 -----------------------------------------------
     1      (1,5,5)              -40000.000     
     2      (1,11,5)              0.0000000     
     3      (1,5,5)               0.0000000     
 -----------------------------------------------




 CHD PACKAGE (CHD-FROM-IBOUND) FLOW RATES   PERIOD     17   STEP        2
 -----------------------------------------------
   NUMBER   CELLID                    RATE      
 -----------------------------------------------
     1      (1,1,1)              -5346.3429     
     2      (1,1,2)              -5346.3402     
     3      (1,1,3)              -5346.3236     
     4      (1,1,4)              -5346.1494     
     5      (1,1,5)              -5345.1496     
     6      (1,1,6)              -5346.1520     
     7      (1,1,7)              -5346.3286     
     8      (1,1,8)              -5346.3468     
     9      (1,1,9)              -5346.3498     
     10     (1,21,1)             -5346.3468     
     11     (1,21,2)             -5346.3445     
     12     (1,21,3)             -5346.3420     
     13     (1,21,4)             -5346.3402     
     14     (1,21,5)             -5346.3389     
     15     (1,21,6)             -5346.3379     
     16     (1,21,7)             -5346.3383     
     17     (1,21,8)             -5346.3410     
     18     (1,21,9)             -5346.3446     
 -----------------------------------------------




 HEAD WILL BE SAVED ON UNIT 1016 AT END OF TIME STEP    2, STRESS PERIOD   17


  VOLUME BUDGET FOR ENTIRE MODEL AT END OF TIME STEP    2, STRESS PERIOD  17
  ---------------------------------------------------------------------------------------------------

     CUMULATIVE VOLUME      L**3       RATES FOR THIS TIME STEP      L**3/T          PACKAGE NAME    
     ------------------                 ------------------------                     ----------------

           IN:                                      IN:
           ---                                      ---
              STO-SS =    20627874.9241                STO-SS =       29688.7845     STORAGE                          
              STO-SY =      624259.4436                STO-SY =         955.4455     STORAGE                          
                 WEL =           0.0000                   WEL =           0.0000     WEL-1                            
                RCHA =    55596773.9120                  RCHA =      256500.0000     RCH-1                            
                 CHD =           0.0000                   CHD =           0.0000     CHD-FROM-IBOUND                  

            TOTAL IN =    76848908.2797              TOTAL IN =      287144.2300

          OUT:                                     OUT:
          ----                                     ----
              STO-SS =    28367804.5649                STO-SS =      146542.5751     STORAGE                          
              STO-SY =      848465.3703                STO-SY =        4369.0977     STORAGE                          
                 WEL =     3760008.8752                   WEL =       40000.0000     WEL-1                            
                RCHA =           0.0000                  RCHA =           0.0000     RCH-1                            
                 CHD =    43872633.5213                   CHD =       96232.5572     CHD-FROM-IBOUND                  

           TOTAL OUT =    76848912.3316             TOTAL OUT =      287144.2300

            IN - OUT =          -4.0520              IN - OUT =      -6.3015E-05

 PERCENT DISCREPANCY =          -0.00     PERCENT DISCREPANCY =          -0.00




         TIME SUMMARY AT END OF TIME STEP    2 IN STRESS PERIOD   17
                    SECONDS     MINUTES      HOURS       DAYS        YEARS
                    -----------------------------------------------------------
   TIME STEP LENGTH 1.88520E+05  3142.0      52.367      2.1819     5.97382E-03
 STRESS PERIOD TIME 3.45619E+05  5760.3      96.005      4.0002     1.09520E-02
         TOTAL TIME 3.97440E+07 6.62400E+05  11040.      460.00      1.2594    


end timestep


start timestep kper="17" kstp="3" mode="normal"

 UBDSV1 SAVING     FLOW-JA-FACE ON UNIT   1015 AT TIME STEP      3, STRESS PERIOD     17
 UBDSV06 SAVING              WEL IN MODEL MUMODEL          PACKAGE MUMODEL         CONNECTED TO MODEL MUMODEL          PACKAGE WEL-1            ON UNIT   1015 AT TIME STEP      3, STRESS PERIOD     17
 UBDSV06 SAVING             RCHA IN MODEL MUMODEL          PACKAGE MUMODEL         CONNECTED TO MODEL MUMODEL          PACKAGE RCH-1            ON UNIT   1015 AT TIME STEP      3, STRESS PERIOD     17

 WEL PACKAGE (WEL-1) FLOW RATES   PERIOD     17   STEP        3
 -----------------------------------------------
   NUMBER   CELLID                    RATE      
 -----------------------------------------------
     1      (1,5,5)              -40000.000     
     2      (1,11,5)              0.0000000     
     3      (1,5,5)               0.0000000     
 -----------------------------------------------




 CHD PACKAGE (CHD-FROM-IBOUND) FLOW RATES   PERIOD     17   STEP        3
 -----------------------------------------------
   NUMBER   CELLID                    RATE      
 -----------------------------------------------
     1      (1,1,1)              -5350.5476     
     2      (1,1,2)              -5350.5448     
     3      (1,1,3)              -5350.5260     
     4      (1,1,4)              -5350.3322     
     5      (1,1,5)              -5349.2452     
     6      (1,1,6)              -5350.3348     
     7      (1,1,7)              -5350.5310     
     8      (1,1,8)              -5350.5513     
     9      (1,1,9)              -5350.5545     
     10     (1,21,1)             -5350.5515     
     11     (1,21,2)             -5350.5492     
     12     (1,21,3)             -5350.5467     
     13     (1,21,4)             -5350.5450     
     14     (1,21,5)             -5350.5436     
     15     (1,21,6)             -5350.5426     
     16     (1,21,7)             -5350.5430     
     17     (1,21,8)             -5350.5457     
     18     (1,21,9)             -5350.5493     
 -----------------------------------------------




 HEAD WILL BE SAVED ON UNIT 1016 AT END OF TIME STEP    3, STRESS PERIOD   17


  VOLUME BUDGET FOR ENTIRE MODEL AT END OF TIME STEP    3, STRESS PERIOD  17
  ---------------------------------------------------------------------------------------------------

     CUMULATIVE VOLUME      L**3       RATES FOR THIS TIME STEP      L**3/T          PACKAGE NAME    
     ------------------                 ------------------------                     ----------------

           IN:                                      IN:
           ---                                      ---
              STO-SS =    20705130.9279                STO-SS =       29505.8648     STORAGE                          
              STO-SY =      626747.6684                STO-SY =         950.3109     STORAGE                          
                 WEL =           0.0000                   WEL =           0.0000     WEL-1                            
                RCHA =    56268374.7998                  RCHA =      256500.0000     RCH-1                            
                 CHD =           0.0000                   CHD =           0.0000     CHD-FROM-IBOUND                  

            TOTAL IN =    77600253.3961              TOTAL IN =      286956.1757

          OUT:                                     OUT:
          ----                                     ----
              STO-SS =    28750833.8540                STO-SS =      146287.7945     STORAGE                          
              STO-SY =      859882.0550                STO-SY =        4360.2974     STORAGE                          
                 WEL =     3864741.9571                   WEL =       40000.0000     WEL-1                            
                RCHA =           0.0000                  RCHA =           0.0000     RCH-1                            
                 CHD =    44124799.5823                   CHD =       96308.0839     CHD-FROM-IBOUND                  

           TOTAL OUT =    77600257.4483             TOTAL OUT =      286956.1758

            IN - OUT =          -4.0522              IN - OUT =      -1.0796E-04

 PERCENT DISCREPANCY =          -0.00     PERCENT DISCREPANCY =          -0.00




         TIME SUMMARY AT END OF TIME STEP    3 IN STRESS PERIOD   17
                    SECONDS     MINUTES      HOURS       DAYS        YEARS
                    -----------------------------------------------------------
   TIME STEP LENGTH 2.26223E+05  3770.4      62.840      2.6183     7.16859E-03
 STRESS PERIOD TIME 5.71843E+05  9530.7      158.85      6.6185     1.81206E-02
         TOTAL TIME 3.99702E+07 6.66171E+05  11103.      462.62      1.2666    


end timestep


start timestep kper="17" kstp="4" mode="normal"

 UBDSV1 SAVING     FLOW-JA-FACE ON UNIT   1015 AT TIME STEP      4, STRESS PERIOD     17
 UBDSV06 SAVING              WEL IN MODEL MUMODEL          PACKAGE MUMODEL         CONNECTED TO MODEL MUMODEL          PACKAGE WEL-1            ON UNIT   1015 AT TIME STEP      4, STRESS PERIOD     17
 UBDSV06 SAVING             RCHA IN MODEL MUMODEL          PACKAGE MUMODEL         CONNECTED TO MODEL MUMODEL          PACKAGE RCH-1            ON UNIT   1015 AT TIME STEP      4, STRESS PERIOD     17

 WEL PACKAGE (WEL-1) FLOW RATES   PERIOD     17   STEP        4
 -----------------------------------------------
   NUMBER   CELLID                    RATE      
 -----------------------------------------------
     1      (1,5,5)              -40000.000     
     2      (1,11,5)              0.0000000     
     3      (1,5,5)               0.0000000     
 -----------------------------------------------




 CHD PACKAGE (CHD-FROM-IBOUND) FLOW RATES   PERIOD     17   STEP        4
 -----------------------------------------------
   NUMBER   CELLID                    RATE      
 -----------------------------------------------
     1      (1,1,1)              -5355.5667     
     2      (1,1,2)              -5355.5637     
     3      (1,1,3)              -5355.5420     
     4      (1,1,4)              -5355.3223     
     5      (1,1,5)              -5354.1236     
     6      (1,1,6)              -5355.3249     
     7      (1,1,7)              -5355.5470     
     8      (1,1,8)              -5355.5702     
     9      (1,1,9)              -5355.5735     
     10     (1,21,1)             -5355.5705     
     11     (1,21,2)             -5355.5683     
     12     (1,21,3)             -5355.5658     
     13     (1,21,4)             -5355.5641     
     14     (1,21,5)             -5355.5627     
     15     (1,21,6)             -5355.5617     
     16     (1,21,7)             -5355.5621     
     17     (1,21,8)             -5355.5649     
     18     (1,21,9)             -5355.5684     
 -----------------------------------------------




 HEAD WILL BE SAVED ON UNIT 1016 AT END OF TIME STEP    4, STRESS PERIOD   17


  VOLUME BUDGET FOR ENTIRE MODEL AT END OF TIME STEP    4, STRESS PERIOD  17
  ---------------------------------------------------------------------------------------------------

     CUMULATIVE VOLUME      L**3       RATES FOR THIS TIME STEP      L**3/T          PACKAGE NAME    
     ------------------                 ------------------------                     ----------------

           IN:                                      IN:
           ---                                      ---
              STO-SS =    20797144.5190                STO-SS =       29285.1088     STORAGE                          
              STO-SY =      629713.9289                STO-SY =         944.0699     STORAGE                          
                 WEL =           0.0000                   WEL =           0.0000     WEL-1                            
                RCHA =    57074295.8652                  RCHA =      256500.0000     RCH-1                            
                 CHD =           0.0000                   CHD =           0.0000     CHD-FROM-IBOUND                  

            TOTAL IN =    78501154.3130              TOTAL IN =      286729.1787

          OUT:                                     OUT:
          ----                                     ----
              STO-SS =    29209505.7977                STO-SS =      145981.2364     STORAGE                          
              STO-SY =      873548.8428                STO-SY =        4349.7201     STORAGE                          
                 WEL =     3990421.6554                   WEL =       40000.0000     WEL-1                            
                RCHA =           0.0000                  RCHA =           0.0000     RCH-1                            
                 CHD =    44427682.0699                   CHD =       96398.2224     CHD-FROM-IBOUND                  

           TOTAL OUT =    78501158.3658             TOTAL OUT =      286729.1789

            IN - OUT =          -4.0528              IN - OUT =      -1.8480E-04

 PERCENT DISCREPANCY =          -0.00     PERCENT DISCREPANCY =          -0.00




         TIME SUMMARY AT END OF TIME STEP    4 IN STRESS PERIOD   17
                    SECONDS     MINUTES      HOURS       DAYS        YEARS
                    -----------------------------------------------------------
   TIME STEP LENGTH 2.71468E+05  4524.5      75.408      3.1420     8.60231E-03
 STRESS PERIOD TIME 8.43311E+05  14055.      234.25      9.7605     2.67229E-02
         TOTAL TIME 4.02417E+07 6.70695E+05  11178.      465.76      1.2752    


end timestep


start timestep kper="17" kstp="5" mode="normal"

 UBDSV1 SAVING     FLOW-JA-FACE ON UNIT   1015 AT TIME STEP      5, STRESS PERIOD     17
 UBDSV06 SAVING              WEL IN MODEL MUMODEL          PACKAGE MUMODEL         CONNECTED TO MODEL MUMODEL          PACKAGE WEL-1            ON UNIT   1015 AT TIME STEP      5, STRESS PERIOD     17
 UBDSV06 SAVING             RCHA IN MODEL MUMODEL          PACKAGE MUMODEL         CONNECTED TO MODEL MUMODEL          PACKAGE RCH-1            ON UNIT   1015 AT TIME STEP      5, STRESS PERIOD     17

 WEL PACKAGE (WEL-1) FLOW RATES   PERIOD     17   STEP        5
 -----------------------------------------------
   NUMBER   CELLID                    RATE      
 -----------------------------------------------
     1      (1,5,5)              -40000.000     
     2      (1,11,5)              0.0000000     
     3      (1,5,5)               0.0000000     
 -----------------------------------------------




 CHD PACKAGE (CHD-FROM-IBOUND) FLOW RATES   PERIOD     17   STEP        5
 -----------------------------------------------
   NUMBER   CELLID                    RATE      
 -----------------------------------------------
     1      (1,1,1)              -5361.5519     
     2      (1,1,2)              -5361.5486     
     3      (1,1,3)              -5361.5229     
     4      (1,1,4)              -5361.2686     
     5      (1,1,5)              -5359.9257     
     6      (1,1,6)              -5361.2711     
     7      (1,1,7)              -5361.5278     
     8      (1,1,8)              -5361.5550     
     9      (1,1,9)              -5361.5587     
     10     (1,21,1)             -5361.5557     
     11     (1,21,2)             -5361.5534     
     12     (1,21,3)             -5361.5510     
     13     (1,21,4)             -5361.5493     
     14     (1,21,5)             -5361.5479     
     15     (1,21,6)             -5361.5470     
     16     (1,21,7)             -5361.5474     
     17     (1,21,8)             -5361.5501     
     18     (1,21,9)             -5361.5536     
 -----------------------------------------------




 HEAD WILL BE SAVED ON UNIT 1016 AT END OF TIME STEP    5, STRESS PERIOD   17


  VOLUME BUDGET FOR ENTIRE MODEL AT END OF TIME STEP    5, STRESS PERIOD  17
  ---------------------------------------------------------------------------------------------------

     CUMULATIVE VOLUME      L**3       RATES FOR THIS TIME STEP      L**3/T          PACKAGE NAME    
     ------------------                 ------------------------                     ----------------

           IN:                                      IN:
           ---                                      ---
              STO-SS =    20906556.4810                STO-SS =       29018.7313     STORAGE                          
              STO-SY =      633244.8240                STO-SY =         936.4798     STORAGE                          
                 WEL =           0.0000                   WEL =           0.0000     WEL-1                            
                RCHA =    58041401.1436                  RCHA =      256500.0000     RCH-1                            
                 CHD =           0.0000                   CHD =           0.0000     CHD-FROM-IBOUND                  

            TOTAL IN =    79581202.4486              TOTAL IN =      286455.2112

          OUT:                                     OUT:
          ----                                     ----
              STO-SS =    29758521.8988                STO-SS =      145612.5130     STORAGE                          
              STO-SY =      889901.0767                STO-SY =        4337.0128     STORAGE                          
                 WEL =     4141237.2934                   WEL =       40000.0000     WEL-1                            
                RCHA =           0.0000                  RCHA =           0.0000     RCH-1                            
                 CHD =    44791546.2337                   CHD =       96505.6857     CHD-FROM-IBOUND                  

           TOTAL OUT =    79581206.5026             TOTAL OUT =      286455.2115

            IN - OUT =          -4.0540              IN - OUT =      -3.0880E-04

 PERCENT DISCREPANCY =          -0.00     PERCENT DISCREPANCY =          -0.00




         TIME SUMMARY AT END OF TIME STEP    5 IN STRESS PERIOD   17
                    SECONDS     MINUTES      HOURS       DAYS        YEARS
                    -----------------------------------------------------------
   TIME STEP LENGTH 3.25762E+05  5429.4      90.489      3.7704     1.03228E-02
 STRESS PERIOD TIME 1.16907E+06  19485.      324.74      13.531     3.70457E-02
         TOTAL TIME 4.05675E+07 6.76125E+05  11269.      469.53      1.2855    


end timestep


start timestep kper="17" kstp="6" mode="normal"

 UBDSV1 SAVING     FLOW-JA-FACE ON UNIT   1015 AT TIME STEP      6, STRESS PERIOD     17
 UBDSV06 SAVING              WEL IN MODEL MUMODEL          PACKAGE MUMODEL         CONNECTED TO MODEL MUMODEL          PACKAGE WEL-1            ON UNIT   1015 AT TIME STEP      6, STRESS PERIOD     17
 UBDSV06 SAVING             RCHA IN MODEL MUMODEL          PACKAGE MUMODEL         CONNECTED TO MODEL MUMODEL          PACKAGE RCH-1            ON UNIT   1015 AT TIME STEP      6, STRESS PERIOD     17

 WEL PACKAGE (WEL-1) FLOW RATES   PERIOD     17   STEP        6
 -----------------------------------------------
   NUMBER   CELLID                    RATE      
 -----------------------------------------------
     1      (1,5,5)              -40000.000     
     2      (1,11,5)              0.0000000     
     3      (1,5,5)               0.0000000     
 -----------------------------------------------




 CHD PACKAGE (CHD-FROM-IBOUND) FLOW RATES   PERIOD     17   STEP        6
 -----------------------------------------------
   NUMBER   CELLID                    RATE      
 -----------------------------------------------
     1      (1,1,1)              -5368.6806     
     2      (1,1,2)              -5368.6769     
     3      (1,1,3)              -5368.6455     
     4      (1,1,4)              -5368.3441     
     5      (1,1,5)              -5366.8131     
     6      (1,1,6)              -5368.3467     
     7      (1,1,7)              -5368.6504     
     8      (1,1,8)              -5368.6833     
     9      (1,1,9)              -5368.6874     
     10     (1,21,1)             -5368.6844     
     11     (1,21,2)             -5368.6822     
     12     (1,21,3)             -5368.6798     
     13     (1,21,4)             -5368.6781     
     14     (1,21,5)             -5368.6767     
     15     (1,21,6)             -5368.6758     
     16     (1,21,7)             -5368.6762     
     17     (1,21,8)             -5368.6789     
     18     (1,21,9)             -5368.6824     
 -----------------------------------------------




 HEAD WILL BE SAVED ON UNIT 1016 AT END OF TIME STEP    6, STRESS PERIOD   17


  VOLUME BUDGET FOR ENTIRE MODEL AT END OF TIME STEP    6, STRESS PERIOD  17
  ---------------------------------------------------------------------------------------------------

     CUMULATIVE VOLUME      L**3       RATES FOR THIS TIME STEP      L**3/T          PACKAGE NAME    
     ------------------                 ------------------------                     ----------------

           IN:                                      IN:
           ---                                      ---
              STO-SS =    21036397.3985                STO-SS =       28697.4921     STORAGE                          
              STO-SY =      637440.1312                STO-SY =         927.2485     STORAGE                          
                 WEL =           0.0000                   WEL =           0.0000     WEL-1                            
                RCHA =    59201927.4778                  RCHA =      256500.0000     RCH-1                            
                 CHD =           0.0000                   CHD =           0.0000     CHD-FROM-IBOUND                  

            TOTAL IN =    80875765.0075              TOTAL IN =      286124.7406

          OUT:                                     OUT:
          ----                                     ----
              STO-SS =    30415336.0963                STO-SS =      145169.3397     STORAGE                          
              STO-SY =      909454.7407                STO-SY =        4321.7587     STORAGE                          
                 WEL =     4322216.0589                   WEL =       40000.0000     WEL-1                            
                RCHA =           0.0000                  RCHA =           0.0000     RCH-1                            
                 CHD =    45228762.1679                   CHD =       96633.6427     CHD-FROM-IBOUND                  

           TOTAL OUT =    80875769.0638             TOTAL OUT =      286124.7412

            IN - OUT =          -4.0563              IN - OUT =      -5.1508E-04

 PERCENT DISCREPANCY =          -0.00     PERCENT DISCREPANCY =          -0.00




         TIME SUMMARY AT END OF TIME STEP    6 IN STRESS PERIOD   17
                    SECONDS     MINUTES      HOURS       DAYS        YEARS
                    -----------------------------------------------------------
   TIME STEP LENGTH 3.90914E+05  6515.2      108.59      4.5245     1.23873E-02
 STRESS PERIOD TIME 1.55999E+06  26000.      433.33      18.055     4.94330E-02
         TOTAL TIME 4.09584E+07 6.82640E+05  11377.      474.06      1.2979    


end timestep


start timestep kper="17" kstp="7" mode="normal"

 UBDSV1 SAVING     FLOW-JA-FACE ON UNIT   1015 AT TIME STEP      7, STRESS PERIOD     17
 UBDSV06 SAVING              WEL IN MODEL MUMODEL          PACKAGE MUMODEL         CONNECTED TO MODEL MUMODEL          PACKAGE WEL-1            ON UNIT   1015 AT TIME STEP      7, STRESS PERIOD     17
 UBDSV06 SAVING             RCHA IN MODEL MUMODEL          PACKAGE MUMODEL         CONNECTED TO MODEL MUMODEL          PACKAGE RCH-1            ON UNIT   1015 AT TIME STEP      7, STRESS PERIOD     17

 WEL PACKAGE (WEL-1) FLOW RATES   PERIOD     17   STEP        7
 -----------------------------------------------
   NUMBER   CELLID                    RATE      
 -----------------------------------------------
     1      (1,5,5)              -40000.000     
     2      (1,11,5)              0.0000000     
     3      (1,5,5)               0.0000000     
 -----------------------------------------------




 CHD PACKAGE (CHD-FROM-IBOUND) FLOW RATES   PERIOD     17   STEP        7
 -----------------------------------------------
   NUMBER   CELLID                    RATE      
 -----------------------------------------------
     1      (1,1,1)              -5377.1596     
     2      (1,1,2)              -5377.1552     
     3      (1,1,3)              -5377.1156     
     4      (1,1,4)              -5376.7490     
     5      (1,1,5)              -5374.9699     
     6      (1,1,6)              -5376.7515     
     7      (1,1,7)              -5377.1204     
     8      (1,1,8)              -5377.1615     
     9      (1,1,9)              -5377.1663     
     10     (1,21,1)             -5377.1634     
     11     (1,21,2)             -5377.1612     
     12     (1,21,3)             -5377.1588     
     13     (1,21,4)             -5377.1571     
     14     (1,21,5)             -5377.1558     
     15     (1,21,6)             -5377.1549     
     16     (1,21,7)             -5377.1553     
     17     (1,21,8)             -5377.1580     
     18     (1,21,9)             -5377.1615     
 -----------------------------------------------




 HEAD WILL BE SAVED ON UNIT 1016 AT END OF TIME STEP    7, STRESS PERIOD   17


  VOLUME BUDGET FOR ENTIRE MODEL AT END OF TIME STEP    7, STRESS PERIOD  17
  ---------------------------------------------------------------------------------------------------

     CUMULATIVE VOLUME      L**3       RATES FOR THIS TIME STEP      L**3/T          PACKAGE NAME    
     ------------------                 ------------------------                     ----------------

           IN:                                      IN:
           ---                                      ---
              STO-SS =    21190105.6747                STO-SS =       28310.5545     STORAGE                          
              STO-SY =      642413.5789                STO-SY =         916.0279     STORAGE                          
                 WEL =           0.0000                   WEL =           0.0000     WEL-1                            
                RCHA =    60594559.0788                  RCHA =      256500.0000     RCH-1                            
                 CHD =           0.0000                   CHD =           0.0000     CHD-FROM-IBOUND                  

            TOTAL IN =    82427078.3324              TOTAL IN =      285726.5824

          OUT:                                     OUT:
          ----                                     ----
              STO-SS =    31200624.7007                STO-SS =      144637.3376     STORAGE                          
              STO-SY =      932819.8445                STO-SY =        4303.4706     STORAGE                          
                 WEL =     4539390.5776                   WEL =       40000.0000     WEL-1                            
                RCHA =           0.0000                  RCHA =           0.0000     RCH-1                            
                 CHD =    45754247.2706                   CHD =       96785.7750     CHD-FROM-IBOUND                  

           TOTAL OUT =    82427082.3933             TOTAL OUT =      285726.5832

            IN - OUT =          -4.0609              IN - OUT =      -8.4725E-04

 PERCENT DISCREPANCY =          -0.00     PERCENT DISCREPANCY =          -0.00




         TIME SUMMARY AT END OF TIME STEP    7 IN STRESS PERIOD   17
                    SECONDS     MINUTES      HOURS       DAYS        YEARS
                    -----------------------------------------------------------
   TIME STEP LENGTH 4.69097E+05  7818.3      130.30      5.4294     1.48648E-02
 STRESS PERIOD TIME 2.02908E+06  33818.      563.63      23.485     6.42978E-02
         TOTAL TIME 4.14275E+07 6.90458E+05  11508.      479.48      1.3128    


end timestep


start timestep kper="17" kstp="8" mode="normal"

 UBDSV1 SAVING     FLOW-JA-FACE ON UNIT   1015 AT TIME STEP      8, STRESS PERIOD     17
 UBDSV06 SAVING              WEL IN MODEL MUMODEL          PACKAGE MUMODEL         CONNECTED TO MODEL MUMODEL          PACKAGE WEL-1            ON UNIT   1015 AT TIME STEP      8, STRESS PERIOD     17
 UBDSV06 SAVING             RCHA IN MODEL MUMODEL          PACKAGE MUMODEL         CONNECTED TO MODEL MUMODEL          PACKAGE RCH-1            ON UNIT   1015 AT TIME STEP      8, STRESS PERIOD     17

 WEL PACKAGE (WEL-1) FLOW RATES   PERIOD     17   STEP        8
 -----------------------------------------------
   NUMBER   CELLID                    RATE      
 -----------------------------------------------
     1      (1,5,5)              -40000.000     
     2      (1,11,5)              0.0000000     
     3      (1,5,5)               0.0000000     
 -----------------------------------------------




 CHD PACKAGE (CHD-FROM-IBOUND) FLOW RATES   PERIOD     17   STEP        8
 -----------------------------------------------
   NUMBER   CELLID                    RATE      
 -----------------------------------------------
     1      (1,1,1)              -5387.2281     
     2      (1,1,2)              -5387.2226     
     3      (1,1,3)              -5387.1707     
     4      (1,1,4)              -5386.7120     
     5      (1,1,5)              -5384.6022     
     6      (1,1,6)              -5386.7145     
     7      (1,1,7)              -5387.1755     
     8      (1,1,8)              -5387.2288     
     9      (1,1,9)              -5387.2347     
     10     (1,21,1)             -5387.2318     
     11     (1,21,2)             -5387.2297     
     12     (1,21,3)             -5387.2273     
     13     (1,21,4)             -5387.2256     
     14     (1,21,5)             -5387.2243     
     15     (1,21,6)             -5387.2234     
     16     (1,21,7)             -5387.2239     
     17     (1,21,8)             -5387.2266     
     18     (1,21,9)             -5387.2300     
 -----------------------------------------------




 HEAD WILL BE SAVED ON UNIT 1016 AT END OF TIME STEP    8, STRESS PERIOD   17


  VOLUME BUDGET FOR ENTIRE MODEL AT END OF TIME STEP    8, STRESS PERIOD  17
  ---------------------------------------------------------------------------------------------------

     CUMULATIVE VOLUME      L**3       RATES FOR THIS TIME STEP      L**3/T          PACKAGE NAME    
     ------------------                 ------------------------                     ----------------

           IN:                                      IN:
           ---                                      ---
              STO-SS =    21371525.1593                STO-SS =       27845.4222     STORAGE                          
              STO-SY =      648292.9950                STO-SY =         902.4104     STORAGE                          
                 WEL =           0.0000                   WEL =           0.0000     WEL-1                            
                RCHA =    62265717.0000                  RCHA =      256500.0000     RCH-1                            
                 CHD =           0.0000                   CHD =           0.0000     CHD-FROM-IBOUND                  

            TOTAL IN =    84285535.1543              TOTAL IN =      285247.8325

          OUT:                                     OUT:
          ----                                     ----
              STO-SS =    32138818.0732                STO-SS =      143999.9159     STORAGE                          
              STO-SY =      960715.3883                STO-SY =        4281.5864     STORAGE                          
                 WEL =     4800000.0000                   WEL =       40000.0000     WEL-1                            
                RCHA =           0.0000                  RCHA =           0.0000     RCH-1                            
                 CHD =    46386005.7627                   CHD =       96966.3317     CHD-FROM-IBOUND                  

           TOTAL OUT =    84285539.2242             TOTAL OUT =      285247.8339

            IN - OUT =          -4.0699              IN - OUT =      -1.3834E-03

 PERCENT DISCREPANCY =          -0.00     PERCENT DISCREPANCY =          -0.00




         TIME SUMMARY AT END OF TIME STEP    8 IN STRESS PERIOD   17
                    SECONDS     MINUTES      HOURS       DAYS        YEARS
                    -----------------------------------------------------------
   TIME STEP LENGTH 5.62916E+05  9381.9      156.37      6.5152     1.78377E-02
 STRESS PERIOD TIME 2.59200E+06  43200.      720.00      30.000     8.21355E-02
         TOTAL TIME 4.19904E+07 6.99840E+05  11664.      486.00      1.3306    


end timestep


start timestep kper="18" kstp="1" mode="normal"


 OUTPUT CONTROL FOR STRESS PERIOD 18 IS REPEATED USING SETTINGS FROM A PREVIOUS STRESS PERIOD.


 STRESS PERIOD 18 IS TRANSIENT


 REUSING WELS FROM LAST STRESS PERIOD

 REUSING CHDS FROM LAST STRESS PERIOD
 UBDSV1 SAVING     FLOW-JA-FACE ON UNIT   1015 AT TIME STEP      1, STRESS PERIOD     18
 UBDSV06 SAVING              WEL IN MODEL MUMODEL          PACKAGE MUMODEL         CONNECTED TO MODEL MUMODEL          PACKAGE WEL-1            ON UNIT   1015 AT TIME STEP      1, STRESS PERIOD     18
 UBDSV06 SAVING             RCHA IN MODEL MUMODEL          PACKAGE MUMODEL         CONNECTED TO MODEL MUMODEL          PACKAGE RCH-1            ON UNIT   1015 AT TIME STEP      1, STRESS PERIOD     18

 WEL PACKAGE (WEL-1) FLOW RATES   PERIOD     18   STEP        1
 -----------------------------------------------
   NUMBER   CELLID                    RATE      
 -----------------------------------------------
     1      (1,5,5)              -40000.000     
     2      (1,11,5)              0.0000000     
     3      (1,5,5)               0.0000000     
 -----------------------------------------------




 CHD PACKAGE (CHD-FROM-IBOUND) FLOW RATES   PERIOD     18   STEP        1
 -----------------------------------------------
   NUMBER   CELLID                    RATE      
 -----------------------------------------------
     1      (1,1,1)              -5386.6336     
     2      (1,1,2)              -5386.6278     
     3      (1,1,3)              -5386.5722     
     4      (1,1,4)              -5386.0857     
     5      (1,1,5)              -5383.8774     
     6      (1,1,6)              -5386.0881     
     7      (1,1,7)              -5386.5769     
     8      (1,1,8)              -5386.6340     
     9      (1,1,9)              -5386.6402     
     10     (1,21,1)             -5386.6374     
     11     (1,21,2)             -5386.6352     
     12     (1,21,3)             -5386.6329     
     13     (1,21,4)             -5386.6312     
     14     (1,21,5)             -5386.6299     
     15     (1,21,6)             -5386.6290     
     16     (1,21,7)             -5386.6295     
     17     (1,21,8)             -5386.6322     
     18     (1,21,9)             -5386.6356     
 -----------------------------------------------




 HEAD WILL BE SAVED ON UNIT 1016 AT END OF TIME STEP    1, STRESS PERIOD   18


  VOLUME BUDGET FOR ENTIRE MODEL AT END OF TIME STEP    1, STRESS PERIOD  18
  ---------------------------------------------------------------------------------------------------

     CUMULATIVE VOLUME      L**3       RATES FOR THIS TIME STEP      L**3/T          PACKAGE NAME    
     ------------------                 ------------------------                     ----------------

           IN:                                      IN:
           ---                                      ---
              STO-SS =    21465208.9202                STO-SS =       49861.1715     STORAGE                          
              STO-SY =      651288.4319                STO-SY =        1594.2570     STORAGE                          
                 WEL =           0.0000                   WEL =           0.0000     WEL-1                            
                RCHA =    62426362.2741                  RCHA =       85500.0000     RCH-1                            
                 CHD =           0.0000                   CHD =           0.0000     CHD-FROM-IBOUND                  

            TOTAL IN =    84542859.6262              TOTAL IN =      136955.4285

          OUT:                                     OUT:
          ----                                     ----
              STO-SS =    32138818.0732                STO-SS =           0.0000     STORAGE                          
              STO-SY =      960715.3883                STO-SY =           0.0000     STORAGE                          
                 WEL =     4875155.6838                   WEL =       40000.0000     WEL-1                            
                RCHA =           0.0000                  RCHA =           0.0000     RCH-1                            
                 CHD =    46568174.5516                   CHD =       96955.4289     CHD-FROM-IBOUND                  

           TOTAL OUT =    84542863.6969             TOTAL OUT =      136955.4289

            IN - OUT =          -4.0707              IN - OUT =      -4.1634E-04

 PERCENT DISCREPANCY =          -0.00     PERCENT DISCREPANCY =          -0.00




         TIME SUMMARY AT END OF TIME STEP    1 IN STRESS PERIOD   18
                    SECONDS     MINUTES      HOURS       DAYS        YEARS
                    -----------------------------------------------------------
   TIME STEP LENGTH 1.62336E+05  2705.6      45.093      1.8789     5.14413E-03
 STRESS PERIOD TIME 1.62336E+05  2705.6      45.093      1.8789     5.14413E-03
         TOTAL TIME 4.21527E+07 7.02546E+05  11709.      487.88      1.3357    


end timestep


start timestep kper="18" kstp="2" mode="normal"

 UBDSV1 SAVING     FLOW-JA-FACE ON UNIT   1015 AT TIME STEP      2, STRESS PERIOD     18
 UBDSV06 SAVING              WEL IN MODEL MUMODEL          PACKAGE MUMODEL         CONNECTED TO MODEL MUMODEL          PACKAGE WEL-1            ON UNIT   1015 AT TIME STEP      2, STRESS PERIOD     18
 UBDSV06 SAVING             RCHA IN MODEL MUMODEL          PACKAGE MUMODEL         CONNECTED TO MODEL MUMODEL          PACKAGE RCH-1            ON UNIT   1015 AT TIME STEP      2, STRESS PERIOD     18

 WEL PACKAGE (WEL-1) FLOW RATES   PERIOD     18   STEP        2
 -----------------------------------------------
   NUMBER   CELLID                    RATE      
 -----------------------------------------------
     1      (1,5,5)              -40000.000     
     2      (1,11,5)              0.0000000     
     3      (1,5,5)               0.0000000     
 -----------------------------------------------




 CHD PACKAGE (CHD-FROM-IBOUND) FLOW RATES   PERIOD     18   STEP        2
 -----------------------------------------------
   NUMBER   CELLID                    RATE      
 -----------------------------------------------
     1      (1,1,1)              -5385.9245     
     2      (1,1,2)              -5385.9182     
     3      (1,1,3)              -5385.8578     
     4      (1,1,4)              -5385.3362     
     5      (1,1,5)              -5383.0061     
     6      (1,1,6)              -5385.3387     
     7      (1,1,7)              -5385.8625     
     8      (1,1,8)              -5385.9244     
     9      (1,1,9)              -5385.9310     
     10     (1,21,1)             -5385.9282     
     11     (1,21,2)             -5385.9261     
     12     (1,21,3)             -5385.9238     
     13     (1,21,4)             -5385.9221     
     14     (1,21,5)             -5385.9208     
     15     (1,21,6)             -5385.9199     
     16     (1,21,7)             -5385.9204     
     17     (1,21,8)             -5385.9231     
     18     (1,21,9)             -5385.9264     
 -----------------------------------------------




 HEAD WILL BE SAVED ON UNIT 1016 AT END OF TIME STEP    2, STRESS PERIOD   18


  VOLUME BUDGET FOR ENTIRE MODEL AT END OF TIME STEP    2, STRESS PERIOD  18
  ---------------------------------------------------------------------------------------------------

     CUMULATIVE VOLUME      L**3       RATES FOR THIS TIME STEP      L**3/T          PACKAGE NAME    
     ------------------                 ------------------------                     ----------------

           IN:                                      IN:
           ---                                      ---
              STO-SS =    21577600.5998                STO-SS =       49848.3831     STORAGE                          
              STO-SY =      654882.4376                STO-SY =        1594.0270     STORAGE                          
                 WEL =           0.0000                   WEL =           0.0000     WEL-1                            
                RCHA =    62619136.6030                  RCHA =       85500.0000     RCH-1                            
                 CHD =           0.0000                   CHD =           0.0000     CHD-FROM-IBOUND                  

            TOTAL IN =    84851619.6404              TOTAL IN =      136942.4101

          OUT:                                     OUT:
          ----                                     ----
              STO-SS =    32138818.0732                STO-SS =           0.0000     STORAGE                          
              STO-SY =      960715.3883                STO-SY =           0.0000     STORAGE                          
                 WEL =     4965342.5043                   WEL =       40000.0000     WEL-1                            
                RCHA =           0.0000                  RCHA =           0.0000     RCH-1                            
                 CHD =    46786747.7454                   CHD =       96942.4102     CHD-FROM-IBOUND                  

           TOTAL OUT =    84851623.7112             TOTAL OUT =      136942.4102

            IN - OUT =          -4.0709              IN - OUT =      -7.5641E-05

 PERCENT DISCREPANCY =          -0.00     PERCENT DISCREPANCY =          -0.00




         TIME SUMMARY AT END OF TIME STEP    2 IN STRESS PERIOD   18
                    SECONDS     MINUTES      HOURS       DAYS        YEARS
                    -----------------------------------------------------------
   TIME STEP LENGTH 1.94804E+05  3246.7      54.112      2.2547     6.17295E-03
 STRESS PERIOD TIME 3.57140E+05  5952.3      99.206      4.1336     1.13171E-02
         TOTAL TIME 4.23475E+07 7.05792E+05  11763.      490.13      1.3419    


end timestep


start timestep kper="18" kstp="3" mode="normal"

 UBDSV1 SAVING     FLOW-JA-FACE ON UNIT   1015 AT TIME STEP      3, STRESS PERIOD     18
 UBDSV06 SAVING              WEL IN MODEL MUMODEL          PACKAGE MUMODEL         CONNECTED TO MODEL MUMODEL          PACKAGE WEL-1            ON UNIT   1015 AT TIME STEP      3, STRESS PERIOD     18
 UBDSV06 SAVING             RCHA IN MODEL MUMODEL          PACKAGE MUMODEL         CONNECTED TO MODEL MUMODEL          PACKAGE RCH-1            ON UNIT   1015 AT TIME STEP      3, STRESS PERIOD     18

 WEL PACKAGE (WEL-1) FLOW RATES   PERIOD     18   STEP        3
 -----------------------------------------------
   NUMBER   CELLID                    RATE      
 -----------------------------------------------
     1      (1,5,5)              -40000.000     
     2      (1,11,5)              0.0000000     
     3      (1,5,5)               0.0000000     
 -----------------------------------------------




 CHD PACKAGE (CHD-FROM-IBOUND) FLOW RATES   PERIOD     18   STEP        3
 -----------------------------------------------
   NUMBER   CELLID                    RATE      
 -----------------------------------------------
     1      (1,1,1)              -5385.0803     
     2      (1,1,2)              -5385.0735     
     3      (1,1,3)              -5385.0068     
     4      (1,1,4)              -5384.4406     
     5      (1,1,5)              -5381.9584     
     6      (1,1,6)              -5384.4430     
     7      (1,1,7)              -5385.0115     
     8      (1,1,8)              -5385.0796     
     9      (1,1,9)              -5385.0868     
     10     (1,21,1)             -5385.0841     
     11     (1,21,2)             -5385.0820     
     12     (1,21,3)             -5385.0796     
     13     (1,21,4)             -5385.0779     
     14     (1,21,5)             -5385.0766     
     15     (1,21,6)             -5385.0758     
     16     (1,21,7)             -5385.0763     
     17     (1,21,8)             -5385.0790     
     18     (1,21,9)             -5385.0823     
 -----------------------------------------------




 HEAD WILL BE SAVED ON UNIT 1016 AT END OF TIME STEP    3, STRESS PERIOD   18


  VOLUME BUDGET FOR ENTIRE MODEL AT END OF TIME STEP    3, STRESS PERIOD  18
  ---------------------------------------------------------------------------------------------------

     CUMULATIVE VOLUME      L**3       RATES FOR THIS TIME STEP      L**3/T          PACKAGE NAME    
     ------------------                 ------------------------                     ----------------

           IN:                                      IN:
           ---                                      ---
              STO-SS =    21712429.4134                STO-SS =       49833.1548     STORAGE                          
              STO-SY =      659194.4657                STO-SY =        1593.7392     STORAGE                          
                 WEL =           0.0000                   WEL =           0.0000     WEL-1                            
                RCHA =    62850465.7977                  RCHA =       85500.0000     RCH-1                            
                 CHD =           0.0000                   CHD =           0.0000     CHD-FROM-IBOUND                  

            TOTAL IN =    85222089.6768              TOTAL IN =      136926.8940

          OUT:                                     OUT:
          ----                                     ----
              STO-SS =    32138818.0732                STO-SS =           0.0000     STORAGE                          
              STO-SY =      960715.3883                STO-SY =           0.0000     STORAGE                          
                 WEL =     5073566.6890                   WEL =       40000.0000     WEL-1                            
                RCHA =           0.0000                  RCHA =           0.0000     RCH-1                            
                 CHD =    47048993.5974                   CHD =       96926.8941     CHD-FROM-IBOUND                  

           TOTAL OUT =    85222093.7480             TOTAL OUT =      136926.8941

            IN - OUT =          -4.0712              IN - OUT =      -1.2688E-04

 PERCENT DISCREPANCY =          -0.00     PERCENT DISCREPANCY =          -0.00




         TIME SUMMARY AT END OF TIME STEP    3 IN STRESS PERIOD   18
                    SECONDS     MINUTES      HOURS       DAYS        YEARS
                    -----------------------------------------------------------
   TIME STEP LENGTH 2.33764E+05  3896.1      64.935      2.7056     7.40754E-03
 STRESS PERIOD TIME 5.90904E+05  9848.4      164.14      6.8392     1.87246E-02
         TOTAL TIME 4.25813E+07 7.09688E+05  11828.      492.84      1.3493    


end timestep


start timestep kper="18" kstp="4" mode="normal"

 UBDSV1 SAVING     FLOW-JA-FACE ON UNIT   1015 AT TIME STEP      4, STRESS PERIOD     18
 UBDSV06 SAVING              WEL IN MODEL MUMODEL          PACKAGE MUMODEL         CONNECTED TO MODEL MUMODEL          PACKAGE WEL-1            ON UNIT   1015 AT TIME STEP      4, STRESS PERIOD     18
 UBDSV06 SAVING             RCHA IN MODEL MUMODEL          PACKAGE MUMODEL         CONNECTED TO MODEL MUMODEL          PACKAGE RCH-1            ON UNIT   1015 AT TIME STEP      4, STRESS PERIOD     18

 WEL PACKAGE (WEL-1) FLOW RATES   PERIOD     18   STEP        4
 -----------------------------------------------
   NUMBER   CELLID                    RATE      
 -----------------------------------------------
     1      (1,5,5)              -40000.000     
     2      (1,11,5)              0.0000000     
     3      (1,5,5)               0.0000000     
 -----------------------------------------------




 CHD PACKAGE (CHD-FROM-IBOUND) FLOW RATES   PERIOD     18   STEP        4
 -----------------------------------------------
   NUMBER   CELLID                    RATE      
 -----------------------------------------------
     1      (1,1,1)              -5384.0770     
     2      (1,1,2)              -5384.0694     
     3      (1,1,3)              -5383.9944     
     4      (1,1,4)              -5383.3707     
     5      (1,1,5)              -5380.6976     
     6      (1,1,6)              -5383.3732     
     7      (1,1,7)              -5383.9991     
     8      (1,1,8)              -5384.0755     
     9      (1,1,9)              -5384.0834     
     10     (1,21,1)             -5384.0808     
     11     (1,21,2)             -5384.0787     
     12     (1,21,3)             -5384.0764     
     13     (1,21,4)             -5384.0747     
     14     (1,21,5)             -5384.0734     
     15     (1,21,6)             -5384.0726     
     16     (1,21,7)             -5384.0731     
     17     (1,21,8)             -5384.0757     
     18     (1,21,9)             -5384.0790     
 -----------------------------------------------




 HEAD WILL BE SAVED ON UNIT 1016 AT END OF TIME STEP    4, STRESS PERIOD   18


  VOLUME BUDGET FOR ENTIRE MODEL AT END OF TIME STEP    4, STRESS PERIOD  18
  ---------------------------------------------------------------------------------------------------

     CUMULATIVE VOLUME      L**3       RATES FOR THIS TIME STEP      L**3/T          PACKAGE NAME    
     ------------------                 ------------------------                     ----------------

           IN:                                      IN:
           ---                                      ---
              STO-SS =    21874165.1970                STO-SS =       49815.0465     STORAGE                          
              STO-SY =      664367.7264                STO-SY =        1593.3779     STORAGE                          
                 WEL =           0.0000                   WEL =           0.0000     WEL-1                            
                RCHA =    63128060.8313                  RCHA =       85500.0000     RCH-1                            
                 CHD =           0.0000                   CHD =           0.0000     CHD-FROM-IBOUND                  

            TOTAL IN =    85666593.7548              TOTAL IN =      136908.4244

          OUT:                                     OUT:
          ----                                     ----
              STO-SS =    32138818.0732                STO-SS =           0.0000     STORAGE                          
              STO-SY =      960715.3883                STO-SY =           0.0000     STORAGE                          
                 WEL =     5203435.7106                   WEL =       40000.0000     WEL-1                            
                RCHA =           0.0000                  RCHA =           0.0000     RCH-1                            
                 CHD =    47363628.6546                   CHD =       96908.4246     CHD-FROM-IBOUND                  

           TOTAL OUT =    85666597.8267             TOTAL OUT =      136908.4246

            IN - OUT =          -4.0719              IN - OUT =      -2.0927E-04

 PERCENT DISCREPANCY =          -0.00     PERCENT DISCREPANCY =          -0.00




         TIME SUMMARY AT END OF TIME STEP    4 IN STRESS PERIOD   18
                    SECONDS     MINUTES      HOURS       DAYS        YEARS
                    -----------------------------------------------------------
   TIME STEP LENGTH 2.80517E+05  4675.3      77.921      3.2467     8.88905E-03
 STRESS PERIOD TIME 8.71421E+05  14524.      242.06      10.086     2.76137E-02
         TOTAL TIME 4.28618E+07 7.14364E+05  11906.      496.09      1.3582    


end timestep


start timestep kper="18" kstp="5" mode="normal"

 UBDSV1 SAVING     FLOW-JA-FACE ON UNIT   1015 AT TIME STEP      5, STRESS PERIOD     18
 UBDSV06 SAVING              WEL IN MODEL MUMODEL          PACKAGE MUMODEL         CONNECTED TO MODEL MUMODEL          PACKAGE WEL-1            ON UNIT   1015 AT TIME STEP      5, STRESS PERIOD     18
 UBDSV06 SAVING             RCHA IN MODEL MUMODEL          PACKAGE MUMODEL         CONNECTED TO MODEL MUMODEL          PACKAGE RCH-1            ON UNIT   1015 AT TIME STEP      5, STRESS PERIOD     18

 WEL PACKAGE (WEL-1) FLOW RATES   PERIOD     18   STEP        5
 -----------------------------------------------
   NUMBER   CELLID                    RATE      
 -----------------------------------------------
     1      (1,5,5)              -40000.000     
     2      (1,11,5)              0.0000000     
     3      (1,5,5)               0.0000000     
 -----------------------------------------------




 CHD PACKAGE (CHD-FROM-IBOUND) FLOW RATES   PERIOD     18   STEP        5
 -----------------------------------------------
   NUMBER   CELLID                    RATE      
 -----------------------------------------------
     1      (1,1,1)              -5382.8866     
     2      (1,1,2)              -5382.8780     
     3      (1,1,3)              -5382.7921     
     4      (1,1,4)              -5382.0935     
     5      (1,1,5)              -5379.1790     
     6      (1,1,6)              -5382.0959     
     7      (1,1,7)              -5382.7967     
     8      (1,1,8)              -5382.8841     
     9      (1,1,9)              -5382.8931     
     10     (1,21,1)             -5382.8905     
     11     (1,21,2)             -5382.8884     
     12     (1,21,3)             -5382.8861     
     13     (1,21,4)             -5382.8845     
     14     (1,21,5)             -5382.8832     
     15     (1,21,6)             -5382.8824     
     16     (1,21,7)             -5382.8829     
     17     (1,21,8)             -5382.8855     
     18     (1,21,9)             -5382.8888     
 -----------------------------------------------




 HEAD WILL BE SAVED ON UNIT 1016 AT END OF TIME STEP    5, STRESS PERIOD   18


  VOLUME BUDGET FOR ENTIRE MODEL AT END OF TIME STEP    5, STRESS PERIOD  18
  ---------------------------------------------------------------------------------------------------

     CUMULATIVE VOLUME      L**3       RATES FOR THIS TIME STEP      L**3/T          PACKAGE NAME    
     ------------------                 ------------------------                     ----------------

           IN:                                      IN:
           ---                                      ---
              STO-SS =    22068164.3762                STO-SS =       49793.5476     STORAGE                          
              STO-SY =      670573.8687                STO-SY =        1592.9234     STORAGE                          
                 WEL =           0.0000                   WEL =           0.0000     WEL-1                            
                RCHA =    63461174.8717                  RCHA =       85500.0000     RCH-1                            
                 CHD =           0.0000                   CHD =           0.0000     CHD-FROM-IBOUND                  

            TOTAL IN =    86199913.1166              TOTAL IN =      136886.4710

          OUT:                                     OUT:
          ----                                     ----
              STO-SS =    32138818.0732                STO-SS =           0.0000     STORAGE                          
              STO-SY =      960715.3883                STO-SY =           0.0000     STORAGE                          
                 WEL =     5359278.5365                   WEL =       40000.0000     WEL-1                            
                RCHA =           0.0000                  RCHA =           0.0000     RCH-1                            
                 CHD =    47741105.1918                   CHD =       96886.4714     CHD-FROM-IBOUND                  

           TOTAL OUT =    86199917.1899             TOTAL OUT =      136886.4714

            IN - OUT =          -4.0733              IN - OUT =      -3.5319E-04

 PERCENT DISCREPANCY =          -0.00     PERCENT DISCREPANCY =          -0.00




         TIME SUMMARY AT END OF TIME STEP    5 IN STRESS PERIOD   18
                    SECONDS     MINUTES      HOURS       DAYS        YEARS
                    -----------------------------------------------------------
   TIME STEP LENGTH 3.36621E+05  5610.3      93.506      3.8961     1.06669E-02
 STRESS PERIOD TIME 1.20804E+06  20134.      335.57      13.982     3.82805E-02
         TOTAL TIME 4.31984E+07 7.19974E+05  12000.      499.98      1.3689    


end timestep


start timestep kper="18" kstp="6" mode="normal"

 UBDSV1 SAVING     FLOW-JA-FACE ON UNIT   1015 AT TIME STEP      6, STRESS PERIOD     18
 UBDSV06 SAVING              WEL IN MODEL MUMODEL          PACKAGE MUMODEL         CONNECTED TO MODEL MUMODEL          PACKAGE WEL-1            ON UNIT   1015 AT TIME STEP      6, STRESS PERIOD     18
 UBDSV06 SAVING             RCHA IN MODEL MUMODEL          PACKAGE MUMODEL         CONNECTED TO MODEL MUMODEL          PACKAGE RCH-1            ON UNIT   1015 AT TIME STEP      6, STRESS PERIOD     18

 WEL PACKAGE (WEL-1) FLOW RATES   PERIOD     18   STEP        6
 -----------------------------------------------
   NUMBER   CELLID                    RATE      
 -----------------------------------------------
     1      (1,5,5)              -40000.000     
     2      (1,11,5)              0.0000000     
     3      (1,5,5)               0.0000000     
 -----------------------------------------------




 CHD PACKAGE (CHD-FROM-IBOUND) FLOW RATES   PERIOD     18   STEP        6
 -----------------------------------------------
   NUMBER   CELLID                    RATE      
 -----------------------------------------------
     1      (1,1,1)              -5381.4776     
     2      (1,1,2)              -5381.4674     
     3      (1,1,3)              -5381.3666     
     4      (1,1,4)              -5380.5692     
     5      (1,1,5)              -5377.3473     
     6      (1,1,6)              -5380.5716     
     7      (1,1,7)              -5381.3712     
     8      (1,1,8)              -5381.4735     
     9      (1,1,9)              -5381.4840     
     10     (1,21,1)             -5381.4815     
     11     (1,21,2)             -5381.4795     
     12     (1,21,3)             -5381.4772     
     13     (1,21,4)             -5381.4755     
     14     (1,21,5)             -5381.4743     
     15     (1,21,6)             -5381.4735     
     16     (1,21,7)             -5381.4740     
     17     (1,21,8)             -5381.4767     
     18     (1,21,9)             -5381.4799     
 -----------------------------------------------




 HEAD WILL BE SAVED ON UNIT 1016 AT END OF TIME STEP    6, STRESS PERIOD   18


  VOLUME BUDGET FOR ENTIRE MODEL AT END OF TIME STEP    6, STRESS PERIOD  18
  ---------------------------------------------------------------------------------------------------

     CUMULATIVE VOLUME      L**3       RATES FOR THIS TIME STEP      L**3/T          PACKAGE NAME    
     ------------------                 ------------------------                     ----------------

           IN:                                      IN:
           ---                                      ---
              STO-SS =    22300844.2722                STO-SS =       49768.0691     STORAGE                          
              STO-SY =      678018.5624                STO-SY =        1592.3509     STORAGE                          
                 WEL =           0.0000                   WEL =           0.0000     WEL-1                            
                RCHA =    63860911.7201                  RCHA =       85500.0000     RCH-1                            
                 CHD =           0.0000                   CHD =           0.0000     CHD-FROM-IBOUND                  

            TOTAL IN =    86839774.5548              TOTAL IN =      136860.4200

          OUT:                                     OUT:
          ----                                     ----
              STO-SS =    32138818.0732                STO-SS =           0.0000     STORAGE                          
              STO-SY =      960715.3883                STO-SY =           0.0000     STORAGE                          
                 WEL =     5546289.9275                   WEL =       40000.0000     WEL-1                            
                RCHA =           0.0000                  RCHA =           0.0000     RCH-1                            
                 CHD =    48193955.2417                   CHD =       96860.4206     CHD-FROM-IBOUND                  

           TOTAL OUT =    86839778.6308             TOTAL OUT =      136860.4206

            IN - OUT =          -4.0760              IN - OUT =      -5.8901E-04

 PERCENT DISCREPANCY =          -0.00     PERCENT DISCREPANCY =          -0.00




         TIME SUMMARY AT END OF TIME STEP    6 IN STRESS PERIOD   18
                    SECONDS     MINUTES      HOURS       DAYS        YEARS
                    -----------------------------------------------------------
   TIME STEP LENGTH 4.03945E+05  6732.4      112.21      4.6753     1.28002E-02
 STRESS PERIOD TIME 1.61199E+06  26866.      447.77      18.657     5.10808E-02
         TOTAL TIME 4.36024E+07 7.26706E+05  12112.      504.66      1.3817    


end timestep


start timestep kper="18" kstp="7" mode="normal"

 UBDSV1 SAVING     FLOW-JA-FACE ON UNIT   1015 AT TIME STEP      7, STRESS PERIOD     18
 UBDSV06 SAVING              WEL IN MODEL MUMODEL          PACKAGE MUMODEL         CONNECTED TO MODEL MUMODEL          PACKAGE WEL-1            ON UNIT   1015 AT TIME STEP      7, STRESS PERIOD     18
 UBDSV06 SAVING             RCHA IN MODEL MUMODEL          PACKAGE MUMODEL         CONNECTED TO MODEL MUMODEL          PACKAGE RCH-1            ON UNIT   1015 AT TIME STEP      7, STRESS PERIOD     18

 WEL PACKAGE (WEL-1) FLOW RATES   PERIOD     18   STEP        7
 -----------------------------------------------
   NUMBER   CELLID                    RATE      
 -----------------------------------------------
     1      (1,5,5)              -40000.000     
     2      (1,11,5)              0.0000000     
     3      (1,5,5)               0.0000000     
 -----------------------------------------------




 CHD PACKAGE (CHD-FROM-IBOUND) FLOW RATES   PERIOD     18   STEP        7
 -----------------------------------------------
   NUMBER   CELLID                    RATE      
 -----------------------------------------------
     1      (1,1,1)              -5379.8139     
     2      (1,1,2)              -5379.8016     
     3      (1,1,3)              -5379.6800     
     4      (1,1,4)              -5378.7505     
     5      (1,1,5)              -5375.1339     
     6      (1,1,6)              -5378.7528     
     7      (1,1,7)              -5379.6845     
     8      (1,1,8)              -5379.8076     
     9      (1,1,9)              -5379.8202     
     10     (1,21,1)             -5379.8179     
     11     (1,21,2)             -5379.8159     
     12     (1,21,3)             -5379.8137     
     13     (1,21,4)             -5379.8120     
     14     (1,21,5)             -5379.8108     
     15     (1,21,6)             -5379.8100     
     16     (1,21,7)             -5379.8106     
     17     (1,21,8)             -5379.8132     
     18     (1,21,9)             -5379.8164     
 -----------------------------------------------




 HEAD WILL BE SAVED ON UNIT 1016 AT END OF TIME STEP    7, STRESS PERIOD   18


  VOLUME BUDGET FOR ENTIRE MODEL AT END OF TIME STEP    7, STRESS PERIOD  18
  ---------------------------------------------------------------------------------------------------

     CUMULATIVE VOLUME      L**3       RATES FOR THIS TIME STEP      L**3/T          PACKAGE NAME    
     ------------------                 ------------------------                     ----------------

           IN:                                      IN:
           ---                                      ---
              STO-SS =    22579891.0873                STO-SS =       49737.9355     STORAGE                          
              STO-SY =      686948.1462                STO-SY =        1591.6292     STORAGE                          
                 WEL =           0.0000                   WEL =           0.0000     WEL-1                            
                RCHA =    64340595.9383                  RCHA =       85500.0000     RCH-1                            
                 CHD =           0.0000                   CHD =           0.0000     CHD-FROM-IBOUND                  

            TOTAL IN =    87607435.1718              TOTAL IN =      136829.5647

          OUT:                                     OUT:
          ----                                     ----
              STO-SS =    32138818.0732                STO-SS =           0.0000     STORAGE                          
              STO-SY =      960715.3883                STO-SY =           0.0000     STORAGE                          
                 WEL =     5770703.5968                   WEL =       40000.0000     WEL-1                            
                RCHA =           0.0000                  RCHA =           0.0000     RCH-1                            
                 CHD =    48737202.1949                   CHD =       96829.5657     CHD-FROM-IBOUND                  

           TOTAL OUT =    87607439.2533             TOTAL OUT =      136829.5657

            IN - OUT =          -4.0815              IN - OUT =      -9.7411E-04

 PERCENT DISCREPANCY =          -0.00     PERCENT DISCREPANCY =          -0.00




         TIME SUMMARY AT END OF TIME STEP    7 IN STRESS PERIOD   18
                    SECONDS     MINUTES      HOURS       DAYS        YEARS
                    -----------------------------------------------------------
   TIME STEP LENGTH 4.84734E+05  8078.9      134.65      5.6103     1.53603E-02
 STRESS PERIOD TIME 2.09672E+06  34945.      582.42      24.268     6.64410E-02
         TOTAL TIME 4.40871E+07 7.34785E+05  12246.      510.27      1.3970    


end timestep


start timestep kper="18" kstp="8" mode="normal"

 UBDSV1 SAVING     FLOW-JA-FACE ON UNIT   1015 AT TIME STEP      8, STRESS PERIOD     18
 UBDSV06 SAVING              WEL IN MODEL MUMODEL          PACKAGE MUMODEL         CONNECTED TO MODEL MUMODEL          PACKAGE WEL-1            ON UNIT   1015 AT TIME STEP      8, STRESS PERIOD     18
 UBDSV06 SAVING             RCHA IN MODEL MUMODEL          PACKAGE MUMODEL         CONNECTED TO MODEL MUMODEL          PACKAGE RCH-1            ON UNIT   1015 AT TIME STEP      8, STRESS PERIOD     18

 WEL PACKAGE (WEL-1) FLOW RATES   PERIOD     18   STEP        8
 -----------------------------------------------
   NUMBER   CELLID                    RATE      
 -----------------------------------------------
     1      (1,5,5)              -40000.000     
     2      (1,11,5)              0.0000000     
     3      (1,5,5)               0.0000000     
 -----------------------------------------------




 CHD PACKAGE (CHD-FROM-IBOUND) FLOW RATES   PERIOD     18   STEP        8
 -----------------------------------------------
   NUMBER   CELLID                    RATE      
 -----------------------------------------------
     1      (1,1,1)              -5377.8554     
     2      (1,1,2)              -5377.8399     
     3      (1,1,3)              -5377.6888     
     4      (1,1,4)              -5376.5799     
     5      (1,1,5)              -5372.4528     
     6      (1,1,6)              -5376.5823     
     7      (1,1,7)              -5377.6933     
     8      (1,1,8)              -5377.8458     
     9      (1,1,9)              -5377.8617     
     10     (1,21,1)             -5377.8597     
     11     (1,21,2)             -5377.8577     
     12     (1,21,3)             -5377.8555     
     13     (1,21,4)             -5377.8539     
     14     (1,21,5)             -5377.8527     
     15     (1,21,6)             -5377.8519     
     16     (1,21,7)             -5377.8525     
     17     (1,21,8)             -5377.8551     
     18     (1,21,9)             -5377.8582     
 -----------------------------------------------




 HEAD WILL BE SAVED ON UNIT 1016 AT END OF TIME STEP    8, STRESS PERIOD   18


  VOLUME BUDGET FOR ENTIRE MODEL AT END OF TIME STEP    8, STRESS PERIOD  18
  ---------------------------------------------------------------------------------------------------

     CUMULATIVE VOLUME      L**3       RATES FOR THIS TIME STEP      L**3/T          PACKAGE NAME    
     ------------------                 ------------------------                     ----------------

           IN:                                      IN:
           ---                                      ---
              STO-SS =    22914507.8583                STO-SS =       49702.3751     STORAGE                          
              STO-SY =      697657.5301                STO-SY =        1590.7207     STORAGE                          
                 WEL =           0.0000                   WEL =           0.0000     WEL-1                            
                RCHA =    64916217.0000                  RCHA =       85500.0000     RCH-1                            
                 CHD =           0.0000                   CHD =           0.0000     CHD-FROM-IBOUND                  

            TOTAL IN =    88528382.3884              TOTAL IN =      136793.0958

          OUT:                                     OUT:
          ----                                     ----
              STO-SS =    32138818.0732                STO-SS =           0.0000     STORAGE                          
              STO-SY =      960715.3883                STO-SY =           0.0000     STORAGE                          
                 WEL =     6040000.0000                   WEL =       40000.0000     WEL-1                            
                RCHA =           0.0000                  RCHA =           0.0000     RCH-1                            
                 CHD =    49388853.0191                   CHD =       96793.0974     CHD-FROM-IBOUND                  

           TOTAL OUT =    88528386.4807             TOTAL OUT =      136793.0974

            IN - OUT =          -4.0922              IN - OUT =      -1.5951E-03

 PERCENT DISCREPANCY =          -0.00     PERCENT DISCREPANCY =          -0.00




         TIME SUMMARY AT END OF TIME STEP    8 IN STRESS PERIOD   18
                    SECONDS     MINUTES      HOURS       DAYS        YEARS
                    -----------------------------------------------------------
   TIME STEP LENGTH 5.81680E+05  9694.7      161.58      6.7324     1.84323E-02
 STRESS PERIOD TIME 2.67840E+06  44640.      744.00      31.000     8.48734E-02
         TOTAL TIME 4.46688E+07 7.44480E+05  12408.      517.00      1.4155    


end timestep


start timestep kper="19" kstp="1" mode="normal"


 OUTPUT CONTROL FOR STRESS PERIOD 19 IS REPEATED USING SETTINGS FROM A PREVIOUS STRESS PERIOD.


 STRESS PERIOD 19 IS TRANSIENT


 REUSING WELS FROM LAST STRESS PERIOD

 REUSING CHDS FROM LAST STRESS PERIOD
 UBDSV1 SAVING     FLOW-JA-FACE ON UNIT   1015 AT TIME STEP      1, STRESS PERIOD     19
 UBDSV06 SAVING              WEL IN MODEL MUMODEL          PACKAGE MUMODEL         CONNECTED TO MODEL MUMODEL          PACKAGE WEL-1            ON UNIT   1015 AT TIME STEP      1, STRESS PERIOD     19
 UBDSV06 SAVING             RCHA IN MODEL MUMODEL          PACKAGE MUMODEL         CONNECTED TO MODEL MUMODEL          PACKAGE RCH-1            ON UNIT   1015 AT TIME STEP      1, STRESS PERIOD     19

 WEL PACKAGE (WEL-1) FLOW RATES   PERIOD     19   STEP        1
 -----------------------------------------------
   NUMBER   CELLID                    RATE      
 -----------------------------------------------
     1      (1,5,5)              -40000.000     
     2      (1,11,5)              0.0000000     
     3      (1,5,5)               0.0000000     
 -----------------------------------------------




 CHD PACKAGE (CHD-FROM-IBOUND) FLOW RATES   PERIOD     19   STEP        1
 -----------------------------------------------
   NUMBER   CELLID                    RATE      
 -----------------------------------------------
     1      (1,1,1)              -5376.4848     
     2      (1,1,2)              -5376.4683     
     3      (1,1,3)              -5376.3089     
     4      (1,1,4)              -5375.1499     
     5      (1,1,5)              -5370.8818     
     6      (1,1,6)              -5375.1522     
     7      (1,1,7)              -5376.3134     
     8      (1,1,8)              -5376.4742     
     9      (1,1,9)              -5376.4910     
     10     (1,21,1)             -5376.4891     
     11     (1,21,2)             -5376.4871     
     12     (1,21,3)             -5376.4849     
     13     (1,21,4)             -5376.4833     
     14     (1,21,5)             -5376.4821     
     15     (1,21,6)             -5376.4813     
     16     (1,21,7)             -5376.4819     
     17     (1,21,8)             -5376.4845     
     18     (1,21,9)             -5376.4876     
 -----------------------------------------------




 HEAD WILL BE SAVED ON UNIT 1016 AT END OF TIME STEP    1, STRESS PERIOD   19


  VOLUME BUDGET FOR ENTIRE MODEL AT END OF TIME STEP    1, STRESS PERIOD  19
  ---------------------------------------------------------------------------------------------------

     CUMULATIVE VOLUME      L**3       RATES FOR THIS TIME STEP      L**3/T          PACKAGE NAME    
     ------------------                 ------------------------                     ----------------

           IN:                                      IN:
           ---                                      ---
              STO-SS =    23080305.3511                STO-SS =       91183.5631     STORAGE                          
              STO-SY =      702811.4941                STO-SY =        2834.5230     STORAGE                          
                 WEL =           0.0000                   WEL =           0.0000     WEL-1                            
                RCHA =    64993948.5842                  RCHA =       42750.0000     RCH-1                            
                 CHD =           0.0000                   CHD =           0.0000     CHD-FROM-IBOUND                  

            TOTAL IN =    88777065.4294              TOTAL IN =      136768.0861

          OUT:                                     OUT:
          ----                                     ----
              STO-SS =    32138818.0732                STO-SS =           0.0000     STORAGE                          
              STO-SY =      960715.3883                STO-SY =           0.0000     STORAGE                          
                 WEL =     6112731.3069                   WEL =       40000.0000     WEL-1                            
                RCHA =           0.0000                  RCHA =           0.0000     RCH-1                            
                 CHD =    49564804.7538                   CHD =       96768.0864     CHD-FROM-IBOUND                  

           TOTAL OUT =    88777069.5222             TOTAL OUT =      136768.0864

            IN - OUT =          -4.0928              IN - OUT =      -3.0096E-04

 PERCENT DISCREPANCY =          -0.00     PERCENT DISCREPANCY =          -0.00




         TIME SUMMARY AT END OF TIME STEP    1 IN STRESS PERIOD   19
                    SECONDS     MINUTES      HOURS       DAYS        YEARS
                    -----------------------------------------------------------
   TIME STEP LENGTH 1.57100E+05  2618.3      43.639      1.8183     4.97819E-03
 STRESS PERIOD TIME 1.57100E+05  2618.3      43.639      1.8183     4.97819E-03
         TOTAL TIME 4.48259E+07 7.47098E+05  12452.      518.82      1.4204    


end timestep


start timestep kper="19" kstp="2" mode="normal"

 UBDSV1 SAVING     FLOW-JA-FACE ON UNIT   1015 AT TIME STEP      2, STRESS PERIOD     19
 UBDSV06 SAVING              WEL IN MODEL MUMODEL          PACKAGE MUMODEL         CONNECTED TO MODEL MUMODEL          PACKAGE WEL-1            ON UNIT   1015 AT TIME STEP      2, STRESS PERIOD     19
 UBDSV06 SAVING             RCHA IN MODEL MUMODEL          PACKAGE MUMODEL         CONNECTED TO MODEL MUMODEL          PACKAGE RCH-1            ON UNIT   1015 AT TIME STEP      2, STRESS PERIOD     19

 WEL PACKAGE (WEL-1) FLOW RATES   PERIOD     19   STEP        2
 -----------------------------------------------
   NUMBER   CELLID                    RATE      
 -----------------------------------------------
     1      (1,5,5)              -40000.000     
     2      (1,11,5)              0.0000000     
     3      (1,5,5)               0.0000000     
 -----------------------------------------------




 CHD PACKAGE (CHD-FROM-IBOUND) FLOW RATES   PERIOD     19   STEP        2
 -----------------------------------------------
   NUMBER   CELLID                    RATE      
 -----------------------------------------------
     1      (1,1,1)              -5374.8479     
     2      (1,1,2)              -5374.8303     
     3      (1,1,3)              -5374.6604     
     4      (1,1,4)              -5373.4391     
     5      (1,1,5)              -5368.9983     
     6      (1,1,6)              -5373.4415     
     7      (1,1,7)              -5374.6649     
     8      (1,1,8)              -5374.8362     
     9      (1,1,9)              -5374.8542     
     10     (1,21,1)             -5374.8524     
     11     (1,21,2)             -5374.8504     
     12     (1,21,3)             -5374.8482     
     13     (1,21,4)             -5374.8466     
     14     (1,21,5)             -5374.8454     
     15     (1,21,6)             -5374.8446     
     16     (1,21,7)             -5374.8452     
     17     (1,21,8)             -5374.8478     
     18     (1,21,9)             -5374.8509     
 -----------------------------------------------




 HEAD WILL BE SAVED ON UNIT 1016 AT END OF TIME STEP    2, STRESS PERIOD   19


  VOLUME BUDGET FOR ENTIRE MODEL AT END OF TIME STEP    2, STRESS PERIOD  19
  ---------------------------------------------------------------------------------------------------

     CUMULATIVE VOLUME      L**3       RATES FOR THIS TIME STEP      L**3/T          PACKAGE NAME    
     ------------------                 ------------------------                     ----------------

           IN:                                      IN:
           ---                                      ---
              STO-SS =    23279199.2047                STO-SS =       91154.6266     STORAGE                          
              STO-SY =      708994.1885                STO-SY =        2833.5778     STORAGE                          
                 WEL =           0.0000                   WEL =           0.0000     WEL-1                            
                RCHA =    65087226.4853                  RCHA =       42750.0000     RCH-1                            
                 CHD =           0.0000                   CHD =           0.0000     CHD-FROM-IBOUND                  

            TOTAL IN =    89075419.8785              TOTAL IN =      136738.2043

          OUT:                                     OUT:
          ----                                     ----
              STO-SS =    32138818.0732                STO-SS =           0.0000     STORAGE                          
              STO-SY =      960715.3883                STO-SY =           0.0000     STORAGE                          
                 WEL =     6200008.8752                   WEL =       40000.0000     WEL-1                            
                RCHA =           0.0000                  RCHA =           0.0000     RCH-1                            
                 CHD =    49775881.6347                   CHD =       96738.2044     CHD-FROM-IBOUND                  

           TOTAL OUT =    89075423.9714             TOTAL OUT =      136738.2044

            IN - OUT =          -4.0929              IN - OUT =      -5.8473E-05

 PERCENT DISCREPANCY =          -0.00     PERCENT DISCREPANCY =          -0.00




         TIME SUMMARY AT END OF TIME STEP    2 IN STRESS PERIOD   19
                    SECONDS     MINUTES      HOURS       DAYS        YEARS
                    -----------------------------------------------------------
   TIME STEP LENGTH 1.88520E+05  3142.0      52.367      2.1819     5.97382E-03
 STRESS PERIOD TIME 3.45619E+05  5760.3      96.005      4.0002     1.09520E-02
         TOTAL TIME 4.50144E+07 7.50240E+05  12504.      521.00      1.4264    


end timestep


start timestep kper="19" kstp="3" mode="normal"

 UBDSV1 SAVING     FLOW-JA-FACE ON UNIT   1015 AT TIME STEP      3, STRESS PERIOD     19
 UBDSV06 SAVING              WEL IN MODEL MUMODEL          PACKAGE MUMODEL         CONNECTED TO MODEL MUMODEL          PACKAGE WEL-1            ON UNIT   1015 AT TIME STEP      3, STRESS PERIOD     19
 UBDSV06 SAVING             RCHA IN MODEL MUMODEL          PACKAGE MUMODEL         CONNECTED TO MODEL MUMODEL          PACKAGE RCH-1            ON UNIT   1015 AT TIME STEP      3, STRESS PERIOD     19

 WEL PACKAGE (WEL-1) FLOW RATES   PERIOD     19   STEP        3
 -----------------------------------------------
   NUMBER   CELLID                    RATE      
 -----------------------------------------------
     1      (1,5,5)              -40000.000     
     2      (1,11,5)              0.0000000     
     3      (1,5,5)               0.0000000     
 -----------------------------------------------




 CHD PACKAGE (CHD-FROM-IBOUND) FLOW RATES   PERIOD     19   STEP        3
 -----------------------------------------------
   NUMBER   CELLID                    RATE      
 -----------------------------------------------
     1      (1,1,1)              -5372.8951     
     2      (1,1,2)              -5372.8760     
     3      (1,1,3)              -5372.6927     
     4      (1,1,4)              -5371.3933     
     5      (1,1,5)              -5366.7397     
     6      (1,1,6)              -5371.3957     
     7      (1,1,7)              -5372.6972     
     8      (1,1,8)              -5372.8818     
     9      (1,1,9)              -5372.9013     
     10     (1,21,1)             -5372.8996     
     11     (1,21,2)             -5372.8977     
     12     (1,21,3)             -5372.8955     
     13     (1,21,4)             -5372.8939     
     14     (1,21,5)             -5372.8927     
     15     (1,21,6)             -5372.8919     
     16     (1,21,7)             -5372.8925     
     17     (1,21,8)             -5372.8951     
     18     (1,21,9)             -5372.8982     
 -----------------------------------------------




 HEAD WILL BE SAVED ON UNIT 1016 AT END OF TIME STEP    3, STRESS PERIOD   19


  VOLUME BUDGET FOR ENTIRE MODEL AT END OF TIME STEP    3, STRESS PERIOD  19
  ---------------------------------------------------------------------------------------------------

     CUMULATIVE VOLUME      L**3       RATES FOR THIS TIME STEP      L**3/T          PACKAGE NAME    
     ------------------                 ------------------------                     ----------------

           IN:                                      IN:
           ---                                      ---
              STO-SS =    23517781.3907                STO-SS =       91120.0861     STORAGE                          
              STO-SY =      716410.4523                STO-SY =        2832.4436     STORAGE                          
                 WEL =           0.0000                   WEL =           0.0000     WEL-1                            
                RCHA =    65199159.9666                  RCHA =       42750.0000     RCH-1                            
                 CHD =           0.0000                   CHD =           0.0000     CHD-FROM-IBOUND                  

            TOTAL IN =    89433351.8097              TOTAL IN =      136702.5297

          OUT:                                     OUT:
          ----                                     ----
              STO-SS =    32138818.0732                STO-SS =           0.0000     STORAGE                          
              STO-SY =      960715.3883                STO-SY =           0.0000     STORAGE                          
                 WEL =     6304741.9571                   WEL =       40000.0000     WEL-1                            
                RCHA =           0.0000                  RCHA =           0.0000     RCH-1                            
                 CHD =    50029080.4842                   CHD =       96702.5298     CHD-FROM-IBOUND                  

           TOTAL OUT =    89433355.9028             TOTAL OUT =      136702.5298

            IN - OUT =          -4.0932              IN - OUT =      -1.0300E-04

 PERCENT DISCREPANCY =          -0.00     PERCENT DISCREPANCY =          -0.00




         TIME SUMMARY AT END OF TIME STEP    3 IN STRESS PERIOD   19
                    SECONDS     MINUTES      HOURS       DAYS        YEARS
                    -----------------------------------------------------------
   TIME STEP LENGTH 2.26223E+05  3770.4      62.840      2.6183     7.16859E-03
 STRESS PERIOD TIME 5.71843E+05  9530.7      158.85      6.6185     1.81206E-02
         TOTAL TIME 4.52406E+07 7.54011E+05  12567.      523.62      1.4336    


end timestep


start timestep kper="19" kstp="4" mode="normal"

 UBDSV1 SAVING     FLOW-JA-FACE ON UNIT   1015 AT TIME STEP      4, STRESS PERIOD     19
 UBDSV06 SAVING              WEL IN MODEL MUMODEL          PACKAGE MUMODEL         CONNECTED TO MODEL MUMODEL          PACKAGE WEL-1            ON UNIT   1015 AT TIME STEP      4, STRESS PERIOD     19
 UBDSV06 SAVING             RCHA IN MODEL MUMODEL          PACKAGE MUMODEL         CONNECTED TO MODEL MUMODEL          PACKAGE RCH-1            ON UNIT   1015 AT TIME STEP      4, STRESS PERIOD     19

 WEL PACKAGE (WEL-1) FLOW RATES   PERIOD     19   STEP        4
 -----------------------------------------------
   NUMBER   CELLID                    RATE      
 -----------------------------------------------
     1      (1,5,5)              -40000.000     
     2      (1,11,5)              0.0000000     
     3      (1,5,5)               0.0000000     
 -----------------------------------------------




 CHD PACKAGE (CHD-FROM-IBOUND) FLOW RATES   PERIOD     19   STEP        4
 -----------------------------------------------
   NUMBER   CELLID                    RATE      
 -----------------------------------------------
     1      (1,1,1)              -5370.5677     
     2      (1,1,2)              -5370.5467     
     3      (1,1,3)              -5370.3463     
     4      (1,1,4)              -5368.9483     
     5      (1,1,5)              -5364.0311     
     6      (1,1,6)              -5368.9506     
     7      (1,1,7)              -5370.3507     
     8      (1,1,8)              -5370.5525     
     9      (1,1,9)              -5370.5739     
     10     (1,21,1)             -5370.5724     
     11     (1,21,2)             -5370.5705     
     12     (1,21,3)             -5370.5684     
     13     (1,21,4)             -5370.5667     
     14     (1,21,5)             -5370.5655     
     15     (1,21,6)             -5370.5648     
     16     (1,21,7)             -5370.5654     
     17     (1,21,8)             -5370.5680     
     18     (1,21,9)             -5370.5711     
 -----------------------------------------------




 HEAD WILL BE SAVED ON UNIT 1016 AT END OF TIME STEP    4, STRESS PERIOD   19


  VOLUME BUDGET FOR ENTIRE MODEL AT END OF TIME STEP    4, STRESS PERIOD  19
  ---------------------------------------------------------------------------------------------------

     CUMULATIVE VOLUME      L**3       RATES FOR THIS TIME STEP      L**3/T          PACKAGE NAME    
     ------------------                 ------------------------                     ----------------

           IN:                                      IN:
           ---                                      ---
              STO-SS =    23803950.5989                STO-SS =       91078.8972     STORAGE                          
              STO-SY =      725305.6948                STO-SY =        2831.0833     STORAGE                          
                 WEL =           0.0000                   WEL =           0.0000     WEL-1                            
                RCHA =    65333480.1442                  RCHA =       42750.0000     RCH-1                            
                 CHD =           0.0000                   CHD =           0.0000     CHD-FROM-IBOUND                  

            TOTAL IN =    89862736.4378              TOTAL IN =      136659.9806

          OUT:                                     OUT:
          ----                                     ----
              STO-SS =    32138818.0732                STO-SS =           0.0000     STORAGE                          
              STO-SY =      960715.3883                STO-SY =           0.0000     STORAGE                          
                 WEL =     6430421.6554                   WEL =       40000.0000     WEL-1                            
                RCHA =           0.0000                  RCHA =           0.0000     RCH-1                            
                 CHD =    50332785.4146                   CHD =       96659.9807     CHD-FROM-IBOUND                  

           TOTAL OUT =    89862740.5316             TOTAL OUT =      136659.9807

            IN - OUT =          -4.0937              IN - OUT =      -1.7689E-04

 PERCENT DISCREPANCY =          -0.00     PERCENT DISCREPANCY =          -0.00




         TIME SUMMARY AT END OF TIME STEP    4 IN STRESS PERIOD   19
                    SECONDS     MINUTES      HOURS       DAYS        YEARS
                    -----------------------------------------------------------
   TIME STEP LENGTH 2.71468E+05  4524.5      75.408      3.1420     8.60231E-03
 STRESS PERIOD TIME 8.43311E+05  14055.      234.25      9.7605     2.67229E-02
         TOTAL TIME 4.55121E+07 7.58535E+05  12642.      526.76      1.4422    


end timestep


start timestep kper="19" kstp="5" mode="normal"

 UBDSV1 SAVING     FLOW-JA-FACE ON UNIT   1015 AT TIME STEP      5, STRESS PERIOD     19
 UBDSV06 SAVING              WEL IN MODEL MUMODEL          PACKAGE MUMODEL         CONNECTED TO MODEL MUMODEL          PACKAGE WEL-1            ON UNIT   1015 AT TIME STEP      5, STRESS PERIOD     19
 UBDSV06 SAVING             RCHA IN MODEL MUMODEL          PACKAGE MUMODEL         CONNECTED TO MODEL MUMODEL          PACKAGE RCH-1            ON UNIT   1015 AT TIME STEP      5, STRESS PERIOD     19

 WEL PACKAGE (WEL-1) FLOW RATES   PERIOD     19   STEP        5
 -----------------------------------------------
   NUMBER   CELLID                    RATE      
 -----------------------------------------------
     1      (1,5,5)              -40000.000     
     2      (1,11,5)              0.0000000     
     3      (1,5,5)               0.0000000     
 -----------------------------------------------




 CHD PACKAGE (CHD-FROM-IBOUND) FLOW RATES   PERIOD     19   STEP        5
 -----------------------------------------------
   NUMBER   CELLID                    RATE      
 -----------------------------------------------
     1      (1,1,1)              -5367.7978     
     2      (1,1,2)              -5367.7741     
     3      (1,1,3)              -5367.5514     
     4      (1,1,4)              -5366.0277     
     5      (1,1,5)              -5360.7829     
     6      (1,1,6)              -5366.0300     
     7      (1,1,7)              -5367.5558     
     8      (1,1,8)              -5367.7799     
     9      (1,1,9)              -5367.8039     
     10     (1,21,1)             -5367.8027     
     11     (1,21,2)             -5367.8008     
     12     (1,21,3)             -5367.7987     
     13     (1,21,4)             -5367.7971     
     14     (1,21,5)             -5367.7959     
     15     (1,21,6)             -5367.7952     
     16     (1,21,7)             -5367.7958     
     17     (1,21,8)             -5367.7984     
     18     (1,21,9)             -5367.8014     
 -----------------------------------------------




 HEAD WILL BE SAVED ON UNIT 1016 AT END OF TIME STEP    5, STRESS PERIOD   19


  VOLUME BUDGET FOR ENTIRE MODEL AT END OF TIME STEP    5, STRESS PERIOD  19
  ---------------------------------------------------------------------------------------------------

     CUMULATIVE VOLUME      L**3       RATES FOR THIS TIME STEP      L**3/T          PACKAGE NAME    
     ------------------                 ------------------------                     ----------------

           IN:                                      IN:
           ---                                      ---
              STO-SS =    24147168.6703                STO-SS =       91029.8364     STORAGE                          
              STO-SY =      735973.8372                STO-SY =        2829.4526     STORAGE                          
                 WEL =           0.0000                   WEL =           0.0000     WEL-1                            
                RCHA =    65494664.3573                  RCHA =       42750.0000     RCH-1                            
                 CHD =           0.0000                   CHD =           0.0000     CHD-FROM-IBOUND                  

            TOTAL IN =    90377806.8648              TOTAL IN =      136609.2890

          OUT:                                     OUT:
          ----                                     ----
              STO-SS =    32138818.0732                STO-SS =           0.0000     STORAGE                          
              STO-SY =      960715.3883                STO-SY =           0.0000     STORAGE                          
                 WEL =     6581237.2934                   WEL =       40000.0000     WEL-1                            
                RCHA =           0.0000                  RCHA =           0.0000     RCH-1                            
                 CHD =    50697040.2048                   CHD =       96609.2893     CHD-FROM-IBOUND                  

           TOTAL OUT =    90377810.9597             TOTAL OUT =      136609.2893

            IN - OUT =          -4.0949              IN - OUT =      -2.9677E-04

 PERCENT DISCREPANCY =          -0.00     PERCENT DISCREPANCY =          -0.00




         TIME SUMMARY AT END OF TIME STEP    5 IN STRESS PERIOD   19
                    SECONDS     MINUTES      HOURS       DAYS        YEARS
                    -----------------------------------------------------------
   TIME STEP LENGTH 3.25762E+05  5429.4      90.489      3.7704     1.03228E-02
 STRESS PERIOD TIME 1.16907E+06  19485.      324.74      13.531     3.70457E-02
         TOTAL TIME 4.58379E+07 7.63965E+05  12733.      530.53      1.4525    


end timestep


start timestep kper="19" kstp="6" mode="normal"

 UBDSV1 SAVING     FLOW-JA-FACE ON UNIT   1015 AT TIME STEP      6, STRESS PERIOD     19
 UBDSV06 SAVING              WEL IN MODEL MUMODEL          PACKAGE MUMODEL         CONNECTED TO MODEL MUMODEL          PACKAGE WEL-1            ON UNIT   1015 AT TIME STEP      6, STRESS PERIOD     19
 UBDSV06 SAVING             RCHA IN MODEL MUMODEL          PACKAGE MUMODEL         CONNECTED TO MODEL MUMODEL          PACKAGE RCH-1            ON UNIT   1015 AT TIME STEP      6, STRESS PERIOD     19

 WEL PACKAGE (WEL-1) FLOW RATES   PERIOD     19   STEP        6
 -----------------------------------------------
   NUMBER   CELLID                    RATE      
 -----------------------------------------------
     1      (1,5,5)              -40000.000     
     2      (1,11,5)              0.0000000     
     3      (1,5,5)               0.0000000     
 -----------------------------------------------




 CHD PACKAGE (CHD-FROM-IBOUND) FLOW RATES   PERIOD     19   STEP        6
 -----------------------------------------------
   NUMBER   CELLID                    RATE      
 -----------------------------------------------
     1      (1,1,1)              -5364.5062     
     2      (1,1,2)              -5364.4789     
     3      (1,1,3)              -5364.2268     
     4      (1,1,4)              -5362.5414     
     5      (1,1,5)              -5356.8868     
     6      (1,1,6)              -5362.5437     
     7      (1,1,7)              -5364.2311     
     8      (1,1,8)              -5364.4846     
     9      (1,1,9)              -5364.5122     
     10     (1,21,1)             -5364.5114     
     11     (1,21,2)             -5364.5095     
     12     (1,21,3)             -5364.5074     
     13     (1,21,4)             -5364.5058     
     14     (1,21,5)             -5364.5046     
     15     (1,21,6)             -5364.5040     
     16     (1,21,7)             -5364.5046     
     17     (1,21,8)             -5364.5071     
     18     (1,21,9)             -5364.5101     
 -----------------------------------------------




 HEAD WILL BE SAVED ON UNIT 1016 AT END OF TIME STEP    6, STRESS PERIOD   19


  VOLUME BUDGET FOR ENTIRE MODEL AT END OF TIME STEP    6, STRESS PERIOD  19
  ---------------------------------------------------------------------------------------------------

     CUMULATIVE VOLUME      L**3       RATES FOR THIS TIME STEP      L**3/T          PACKAGE NAME    
     ------------------                 ------------------------                     ----------------

           IN:                                      IN:
           ---                                      ---
              STO-SS =    24558766.3092                STO-SS =       90971.4767     STORAGE                          
              STO-SY =      748766.7702                STO-SY =        2827.4992     STORAGE                          
                 WEL =           0.0000                   WEL =           0.0000     WEL-1                            
                RCHA =    65688085.4130                  RCHA =       42750.0000     RCH-1                            
                 CHD =           0.0000                   CHD =           0.0000     CHD-FROM-IBOUND                  

            TOTAL IN =    90995618.4923              TOTAL IN =      136548.9759

          OUT:                                     OUT:
          ----                                     ----
              STO-SS =    32138818.0732                STO-SS =           0.0000     STORAGE                          
              STO-SY =      960715.3883                STO-SY =           0.0000     STORAGE                          
                 WEL =     6762216.0589                   WEL =       40000.0000     WEL-1                            
                RCHA =           0.0000                  RCHA =           0.0000     RCH-1                            
                 CHD =    51133873.0689                   CHD =       96548.9764     CHD-FROM-IBOUND                  

           TOTAL OUT =    90995622.5894             TOTAL OUT =      136548.9764

            IN - OUT =          -4.0971              IN - OUT =      -4.9640E-04

 PERCENT DISCREPANCY =          -0.00     PERCENT DISCREPANCY =          -0.00




         TIME SUMMARY AT END OF TIME STEP    6 IN STRESS PERIOD   19
                    SECONDS     MINUTES      HOURS       DAYS        YEARS
                    -----------------------------------------------------------
   TIME STEP LENGTH 3.90914E+05  6515.2      108.59      4.5245     1.23873E-02
 STRESS PERIOD TIME 1.55999E+06  26000.      433.33      18.055     4.94330E-02
         TOTAL TIME 4.62288E+07 7.70480E+05  12841.      535.06      1.4649    


end timestep


start timestep kper="19" kstp="7" mode="normal"

 UBDSV1 SAVING     FLOW-JA-FACE ON UNIT   1015 AT TIME STEP      7, STRESS PERIOD     19
 UBDSV06 SAVING              WEL IN MODEL MUMODEL          PACKAGE MUMODEL         CONNECTED TO MODEL MUMODEL          PACKAGE WEL-1            ON UNIT   1015 AT TIME STEP      7, STRESS PERIOD     19
 UBDSV06 SAVING             RCHA IN MODEL MUMODEL          PACKAGE MUMODEL         CONNECTED TO MODEL MUMODEL          PACKAGE RCH-1            ON UNIT   1015 AT TIME STEP      7, STRESS PERIOD     19

 WEL PACKAGE (WEL-1) FLOW RATES   PERIOD     19   STEP        7
 -----------------------------------------------
   NUMBER   CELLID                    RATE      
 -----------------------------------------------
     1      (1,5,5)              -40000.000     
     2      (1,11,5)              0.0000000     
     3      (1,5,5)               0.0000000     
 -----------------------------------------------




 CHD PACKAGE (CHD-FROM-IBOUND) FLOW RATES   PERIOD     19   STEP        7
 -----------------------------------------------
   NUMBER   CELLID                    RATE      
 -----------------------------------------------
     1      (1,1,1)              -5360.6017     
     2      (1,1,2)              -5360.5696     
     3      (1,1,3)              -5360.2780     
     4      (1,1,4)              -5358.3824     
     5      (1,1,5)              -5352.2124     
     6      (1,1,6)              -5358.3847     
     7      (1,1,7)              -5360.2823     
     8      (1,1,8)              -5360.5753     
     9      (1,1,9)              -5360.6078     
     10     (1,21,1)             -5360.6075     
     11     (1,21,2)             -5360.6056     
     12     (1,21,3)             -5360.6035     
     13     (1,21,4)             -5360.6019     
     14     (1,21,5)             -5360.6008     
     15     (1,21,6)             -5360.6001     
     16     (1,21,7)             -5360.6008     
     17     (1,21,8)             -5360.6033     
     18     (1,21,9)             -5360.6062     
 -----------------------------------------------




 HEAD WILL BE SAVED ON UNIT 1016 AT END OF TIME STEP    7, STRESS PERIOD   19


  VOLUME BUDGET FOR ENTIRE MODEL AT END OF TIME STEP    7, STRESS PERIOD  19
  ---------------------------------------------------------------------------------------------------

     CUMULATIVE VOLUME      L**3       RATES FOR THIS TIME STEP      L**3/T          PACKAGE NAME    
     ------------------                 ------------------------                     ----------------

           IN:                                      IN:
           ---                                      ---
              STO-SS =    25052307.1367                STO-SS =       90902.1612     STORAGE                          
              STO-SY =      764105.5998                STO-SY =        2825.1619     STORAGE                          
                 WEL =           0.0000                   WEL =           0.0000     WEL-1                            
                RCHA =    65920190.6798                  RCHA =       42750.0000     RCH-1                            
                 CHD =           0.0000                   CHD =           0.0000     CHD-FROM-IBOUND                  

            TOTAL IN =    91736603.4163              TOTAL IN =      136477.3231

          OUT:                                     OUT:
          ----                                     ----
              STO-SS =    32138818.0732                STO-SS =           0.0000     STORAGE                          
              STO-SY =      960715.3883                STO-SY =           0.0000     STORAGE                          
                 WEL =     6979390.5776                   WEL =       40000.0000     WEL-1                            
                RCHA =           0.0000                  RCHA =           0.0000     RCH-1                            
                 CHD =    51657683.4787                   CHD =       96477.3239     CHD-FROM-IBOUND                  

           TOTAL OUT =    91736607.5178             TOTAL OUT =      136477.3239

            IN - OUT =          -4.1016              IN - OUT =      -8.2191E-04

 PERCENT DISCREPANCY =          -0.00     PERCENT DISCREPANCY =          -0.00




         TIME SUMMARY AT END OF TIME STEP    7 IN STRESS PERIOD   19
                    SECONDS     MINUTES      HOURS       DAYS        YEARS
                    -----------------------------------------------------------
   TIME STEP LENGTH 4.69097E+05  7818.3      130.30      5.4294     1.48648E-02
 STRESS PERIOD TIME 2.02908E+06  33818.      563.63      23.485     6.42978E-02
         TOTAL TIME 4.66979E+07 7.78298E+05  12972.      540.48      1.4798    


end timestep


start timestep kper="19" kstp="8" mode="normal"

 UBDSV1 SAVING     FLOW-JA-FACE ON UNIT   1015 AT TIME STEP      8, STRESS PERIOD     19
 UBDSV06 SAVING              WEL IN MODEL MUMODEL          PACKAGE MUMODEL         CONNECTED TO MODEL MUMODEL          PACKAGE WEL-1            ON UNIT   1015 AT TIME STEP      8, STRESS PERIOD     19
 UBDSV06 SAVING             RCHA IN MODEL MUMODEL          PACKAGE MUMODEL         CONNECTED TO MODEL MUMODEL          PACKAGE RCH-1            ON UNIT   1015 AT TIME STEP      8, STRESS PERIOD     19

 WEL PACKAGE (WEL-1) FLOW RATES   PERIOD     19   STEP        8
 -----------------------------------------------
   NUMBER   CELLID                    RATE      
 -----------------------------------------------
     1      (1,5,5)              -40000.000     
     2      (1,11,5)              0.0000000     
     3      (1,5,5)               0.0000000     
 -----------------------------------------------




 CHD PACKAGE (CHD-FROM-IBOUND) FLOW RATES   PERIOD     19   STEP        8
 -----------------------------------------------
   NUMBER   CELLID                    RATE      
 -----------------------------------------------
     1      (1,1,1)              -5355.9803     
     2      (1,1,2)              -5355.9413     
     3      (1,1,3)              -5355.5959     
     4      (1,1,4)              -5353.4237     
     5      (1,1,5)              -5346.6017     
     6      (1,1,6)              -5353.4259     
     7      (1,1,7)              -5355.6002     
     8      (1,1,8)              -5355.9469     
     9      (1,1,9)              -5355.9863     
     10     (1,21,1)             -5355.9868     
     11     (1,21,2)             -5355.9850     
     12     (1,21,3)             -5355.9829     
     13     (1,21,4)             -5355.9813     
     14     (1,21,5)             -5355.9802     
     15     (1,21,6)             -5355.9796     
     16     (1,21,7)             -5355.9802     
     17     (1,21,8)             -5355.9828     
     18     (1,21,9)             -5355.9856     
 -----------------------------------------------




 HEAD WILL BE SAVED ON UNIT 1016 AT END OF TIME STEP    8, STRESS PERIOD   19


  VOLUME BUDGET FOR ENTIRE MODEL AT END OF TIME STEP    8, STRESS PERIOD  19
  ---------------------------------------------------------------------------------------------------

     CUMULATIVE VOLUME      L**3       RATES FOR THIS TIME STEP      L**3/T          PACKAGE NAME    
     ------------------                 ------------------------                     ----------------

           IN:                                      IN:
           ---                                      ---
              STO-SS =    25644020.6734                STO-SS =       90819.9759     STORAGE                          
              STO-SY =      782494.0024                STO-SY =        2822.3696     STORAGE                          
                 WEL =           0.0000                   WEL =           0.0000     WEL-1                            
                RCHA =    66198717.0000                  RCHA =       42750.0000     RCH-1                            
                 CHD =           0.0000                   CHD =           0.0000     CHD-FROM-IBOUND                  

            TOTAL IN =    92625231.6758              TOTAL IN =      136392.3455

          OUT:                                     OUT:
          ----                                     ----
              STO-SS =    32138818.0732                STO-SS =           0.0000     STORAGE                          
              STO-SY =      960715.3883                STO-SY =           0.0000     STORAGE                          
                 WEL =     7240000.0000                   WEL =       40000.0000     WEL-1                            
                RCHA =           0.0000                  RCHA =           0.0000     RCH-1                            
                 CHD =    52285702.3246                   CHD =       96392.3468     CHD-FROM-IBOUND                  

           TOTAL OUT =    92625235.7861             TOTAL OUT =      136392.3468

            IN - OUT =          -4.1104              IN - OUT =      -1.3505E-03

 PERCENT DISCREPANCY =          -0.00     PERCENT DISCREPANCY =          -0.00




         TIME SUMMARY AT END OF TIME STEP    8 IN STRESS PERIOD   19
                    SECONDS     MINUTES      HOURS       DAYS        YEARS
                    -----------------------------------------------------------
   TIME STEP LENGTH 5.62916E+05  9381.9      156.37      6.5152     1.78377E-02
 STRESS PERIOD TIME 2.59200E+06  43200.      720.00      30.000     8.21355E-02
         TOTAL TIME 4.72608E+07 7.87680E+05  13128.      547.00      1.4976    


end timestep


start timestep kper="20" kstp="1" mode="normal"


 OUTPUT CONTROL FOR STRESS PERIOD 20 IS REPEATED USING SETTINGS FROM A PREVIOUS STRESS PERIOD.


 STRESS PERIOD 20 IS TRANSIENT


 REUSING WELS FROM LAST STRESS PERIOD

 REUSING CHDS FROM LAST STRESS PERIOD
 UBDSV1 SAVING     FLOW-JA-FACE ON UNIT   1015 AT TIME STEP      1, STRESS PERIOD     20
 UBDSV06 SAVING              WEL IN MODEL MUMODEL          PACKAGE MUMODEL         CONNECTED TO MODEL MUMODEL          PACKAGE WEL-1            ON UNIT   1015 AT TIME STEP      1, STRESS PERIOD     20
 UBDSV06 SAVING             RCHA IN MODEL MUMODEL          PACKAGE MUMODEL         CONNECTED TO MODEL MUMODEL          PACKAGE RCH-1            ON UNIT   1015 AT TIME STEP      1, STRESS PERIOD     20

 WEL PACKAGE (WEL-1) FLOW RATES   PERIOD     20   STEP        1
 -----------------------------------------------
   NUMBER   CELLID                    RATE      
 -----------------------------------------------
     1      (1,5,5)              -40000.000     
     2      (1,11,5)              0.0000000     
     3      (1,5,5)               0.0000000     
 -----------------------------------------------




 CHD PACKAGE (CHD-FROM-IBOUND) FLOW RATES   PERIOD     20   STEP        1
 -----------------------------------------------
   NUMBER   CELLID                    RATE      
 -----------------------------------------------
     1      (1,1,1)              -5353.8672     
     2      (1,1,2)              -5353.8262     
     3      (1,1,3)              -5353.4646     
     4      (1,1,4)              -5351.2104     
     5      (1,1,5)              -5344.1974     
     6      (1,1,6)              -5351.2127     
     7      (1,1,7)              -5353.4689     
     8      (1,1,8)              -5353.8317     
     9      (1,1,9)              -5353.8732     
     10     (1,21,1)             -5353.8739     
     11     (1,21,2)             -5353.8721     
     12     (1,21,3)             -5353.8700     
     13     (1,21,4)             -5353.8685     
     14     (1,21,5)             -5353.8673     
     15     (1,21,6)             -5353.8667     
     16     (1,21,7)             -5353.8674     
     17     (1,21,8)             -5353.8699     
     18     (1,21,9)             -5353.8728     
 -----------------------------------------------




 HEAD WILL BE SAVED ON UNIT 1016 AT END OF TIME STEP    1, STRESS PERIOD   20


  VOLUME BUDGET FOR ENTIRE MODEL AT END OF TIME STEP    1, STRESS PERIOD  20
  ---------------------------------------------------------------------------------------------------

     CUMULATIVE VOLUME      L**3       RATES FOR THIS TIME STEP      L**3/T          PACKAGE NAME    
     ------------------                 ------------------------                     ----------------

           IN:                                      IN:
           ---                                      ---
              STO-SS =    25884775.9936                STO-SS =      128136.8531     STORAGE                          
              STO-SY =      789900.4590                STO-SY =        3941.9276     STORAGE                          
                 WEL =           0.0000                   WEL =           0.0000     WEL-1                            
                RCHA =    66206749.2637                  RCHA =        4275.0000     RCH-1                            
                 CHD =           0.0000                   CHD =           0.0000     CHD-FROM-IBOUND                  

            TOTAL IN =    92881425.7163              TOTAL IN =      136353.7806

          OUT:                                     OUT:
          ----                                     ----
              STO-SS =    32138818.0732                STO-SS =           0.0000     STORAGE                          
              STO-SY =      960715.3883                STO-SY =           0.0000     STORAGE                          
                 WEL =     7315155.6838                   WEL =       40000.0000     WEL-1                            
                RCHA =           0.0000                  RCHA =           0.0000     RCH-1                            
                 CHD =    52466740.6819                   CHD =       96353.7809     CHD-FROM-IBOUND                  

           TOTAL OUT =    92881429.8272             TOTAL OUT =      136353.7809

            IN - OUT =          -4.1109              IN - OUT =      -2.9766E-04

 PERCENT DISCREPANCY =          -0.00     PERCENT DISCREPANCY =          -0.00




         TIME SUMMARY AT END OF TIME STEP    1 IN STRESS PERIOD   20
                    SECONDS     MINUTES      HOURS       DAYS        YEARS
                    -----------------------------------------------------------
   TIME STEP LENGTH 1.62336E+05  2705.6      45.093      1.8789     5.14413E-03
 STRESS PERIOD TIME 1.62336E+05  2705.6      45.093      1.8789     5.14413E-03
         TOTAL TIME 4.74231E+07 7.90386E+05  13173.      548.88      1.5027    


end timestep


start timestep kper="20" kstp="2" mode="normal"

 UBDSV1 SAVING     FLOW-JA-FACE ON UNIT   1015 AT TIME STEP      2, STRESS PERIOD     20
 UBDSV06 SAVING              WEL IN MODEL MUMODEL          PACKAGE MUMODEL         CONNECTED TO MODEL MUMODEL          PACKAGE WEL-1            ON UNIT   1015 AT TIME STEP      2, STRESS PERIOD     20
 UBDSV06 SAVING             RCHA IN MODEL MUMODEL          PACKAGE MUMODEL         CONNECTED TO MODEL MUMODEL          PACKAGE RCH-1            ON UNIT   1015 AT TIME STEP      2, STRESS PERIOD     20

 WEL PACKAGE (WEL-1) FLOW RATES   PERIOD     20   STEP        2
 -----------------------------------------------
   NUMBER   CELLID                    RATE      
 -----------------------------------------------
     1      (1,5,5)              -40000.000     
     2      (1,11,5)              0.0000000     
     3      (1,5,5)               0.0000000     
 -----------------------------------------------




 CHD PACKAGE (CHD-FROM-IBOUND) FLOW RATES   PERIOD     20   STEP        2
 -----------------------------------------------
   NUMBER   CELLID                    RATE      
 -----------------------------------------------
     1      (1,1,1)              -5351.3432     
     2      (1,1,2)              -5351.2995     
     3      (1,1,3)              -5350.9178     
     4      (1,1,4)              -5348.5625     
     5      (1,1,5)              -5341.3164     
     6      (1,1,6)              -5348.5647     
     7      (1,1,7)              -5350.9221     
     8      (1,1,8)              -5351.3050     
     9      (1,1,9)              -5351.3491     
     10     (1,21,1)             -5351.3502     
     11     (1,21,2)             -5351.3483     
     12     (1,21,3)             -5351.3463     
     13     (1,21,4)             -5351.3447     
     14     (1,21,5)             -5351.3436     
     15     (1,21,6)             -5351.3430     
     16     (1,21,7)             -5351.3436     
     17     (1,21,8)             -5351.3462     
     18     (1,21,9)             -5351.3490     
 -----------------------------------------------




 HEAD WILL BE SAVED ON UNIT 1016 AT END OF TIME STEP    2, STRESS PERIOD   20


  VOLUME BUDGET FOR ENTIRE MODEL AT END OF TIME STEP    2, STRESS PERIOD  20
  ---------------------------------------------------------------------------------------------------

     CUMULATIVE VOLUME      L**3       RATES FOR THIS TIME STEP      L**3/T          PACKAGE NAME    
     ------------------                 ------------------------                     ----------------

           IN:                                      IN:
           ---                                      ---
              STO-SS =    26173581.8899                STO-SS =      128092.2842     STORAGE                          
              STO-SY =      798784.7869                STO-SY =        3940.4108     STORAGE                          
                 WEL =           0.0000                   WEL =           0.0000     WEL-1                            
                RCHA =    66216387.9802                  RCHA =        4275.0000     RCH-1                            
                 CHD =           0.0000                   CHD =           0.0000     CHD-FROM-IBOUND                  

            TOTAL IN =    93188754.6569              TOTAL IN =      136307.6950

          OUT:                                     OUT:
          ----                                     ----
              STO-SS =    32138818.0732                STO-SS =           0.0000     STORAGE                          
              STO-SY =      960715.3883                STO-SY =           0.0000     STORAGE                          
                 WEL =     7405342.5043                   WEL =       40000.0000     WEL-1                            
                RCHA =           0.0000                  RCHA =           0.0000     RCH-1                            
                 CHD =    52683882.8021                   CHD =       96307.6950     CHD-FROM-IBOUND                  

           TOTAL OUT =    93188758.7680             TOTAL OUT =      136307.6950

            IN - OUT =          -4.1111              IN - OUT =      -6.5292E-05

 PERCENT DISCREPANCY =          -0.00     PERCENT DISCREPANCY =          -0.00




         TIME SUMMARY AT END OF TIME STEP    2 IN STRESS PERIOD   20
                    SECONDS     MINUTES      HOURS       DAYS        YEARS
                    -----------------------------------------------------------
   TIME STEP LENGTH 1.94804E+05  3246.7      54.112      2.2547     6.17295E-03
 STRESS PERIOD TIME 3.57140E+05  5952.3      99.206      4.1336     1.13171E-02
         TOTAL TIME 4.76179E+07 7.93632E+05  13227.      551.13      1.5089    


end timestep


start timestep kper="20" kstp="3" mode="normal"

 UBDSV1 SAVING     FLOW-JA-FACE ON UNIT   1015 AT TIME STEP      3, STRESS PERIOD     20
 UBDSV06 SAVING              WEL IN MODEL MUMODEL          PACKAGE MUMODEL         CONNECTED TO MODEL MUMODEL          PACKAGE WEL-1            ON UNIT   1015 AT TIME STEP      3, STRESS PERIOD     20
 UBDSV06 SAVING             RCHA IN MODEL MUMODEL          PACKAGE MUMODEL         CONNECTED TO MODEL MUMODEL          PACKAGE RCH-1            ON UNIT   1015 AT TIME STEP      3, STRESS PERIOD     20

 WEL PACKAGE (WEL-1) FLOW RATES   PERIOD     20   STEP        3
 -----------------------------------------------
   NUMBER   CELLID                    RATE      
 -----------------------------------------------
     1      (1,5,5)              -40000.000     
     2      (1,11,5)              0.0000000     
     3      (1,5,5)               0.0000000     
 -----------------------------------------------




 CHD PACKAGE (CHD-FROM-IBOUND) FLOW RATES   PERIOD     20   STEP        3
 -----------------------------------------------
   NUMBER   CELLID                    RATE      
 -----------------------------------------------
     1      (1,1,1)              -5348.3305     
     2      (1,1,2)              -5348.2835     
     3      (1,1,3)              -5347.8765     
     4      (1,1,4)              -5345.3954     
     5      (1,1,5)              -5337.8640     
     6      (1,1,6)              -5345.3976     
     7      (1,1,7)              -5347.8807     
     8      (1,1,8)              -5348.2890     
     9      (1,1,9)              -5348.3364     
     10     (1,21,1)             -5348.3379     
     11     (1,21,2)             -5348.3361     
     12     (1,21,3)             -5348.3340     
     13     (1,21,4)             -5348.3325     
     14     (1,21,5)             -5348.3313     
     15     (1,21,6)             -5348.3307     
     16     (1,21,7)             -5348.3314     
     17     (1,21,8)             -5348.3339     
     18     (1,21,9)             -5348.3368     
 -----------------------------------------------




 HEAD WILL BE SAVED ON UNIT 1016 AT END OF TIME STEP    3, STRESS PERIOD   20


  VOLUME BUDGET FOR ENTIRE MODEL AT END OF TIME STEP    3, STRESS PERIOD  20
  ---------------------------------------------------------------------------------------------------

     CUMULATIVE VOLUME      L**3       RATES FOR THIS TIME STEP      L**3/T          PACKAGE NAME    
     ------------------                 ------------------------                     ----------------

           IN:                                      IN:
           ---                                      ---
              STO-SS =    26520004.9618                STO-SS =      128039.0601     STORAGE                          
              STO-SY =      809441.0759                STO-SY =        3938.5980     STORAGE                          
                 WEL =           0.0000                   WEL =           0.0000     WEL-1                            
                RCHA =    66227954.4399                  RCHA =        4275.0000     RCH-1                            
                 CHD =           0.0000                   CHD =           0.0000     CHD-FROM-IBOUND                  

            TOTAL IN =    93557400.4776              TOTAL IN =      136252.6581

          OUT:                                     OUT:
          ----                                     ----
              STO-SS =    32138818.0732                STO-SS =           0.0000     STORAGE                          
              STO-SY =      960715.3883                STO-SY =           0.0000     STORAGE                          
                 WEL =     7513566.6890                   WEL =       40000.0000     WEL-1                            
                RCHA =           0.0000                  RCHA =           0.0000     RCH-1                            
                 CHD =    52944304.4385                   CHD =       96252.6582     CHD-FROM-IBOUND                  

           TOTAL OUT =    93557404.5890             TOTAL OUT =      136252.6582

            IN - OUT =          -4.1114              IN - OUT =      -1.1093E-04

 PERCENT DISCREPANCY =          -0.00     PERCENT DISCREPANCY =          -0.00




         TIME SUMMARY AT END OF TIME STEP    3 IN STRESS PERIOD   20
                    SECONDS     MINUTES      HOURS       DAYS        YEARS
                    -----------------------------------------------------------
   TIME STEP LENGTH 2.33764E+05  3896.1      64.935      2.7056     7.40754E-03
 STRESS PERIOD TIME 5.90904E+05  9848.4      164.14      6.8392     1.87246E-02
         TOTAL TIME 4.78517E+07 7.97528E+05  13292.      553.84      1.5163    


end timestep


start timestep kper="20" kstp="4" mode="normal"

 UBDSV1 SAVING     FLOW-JA-FACE ON UNIT   1015 AT TIME STEP      4, STRESS PERIOD     20
 UBDSV06 SAVING              WEL IN MODEL MUMODEL          PACKAGE MUMODEL         CONNECTED TO MODEL MUMODEL          PACKAGE WEL-1            ON UNIT   1015 AT TIME STEP      4, STRESS PERIOD     20
 UBDSV06 SAVING             RCHA IN MODEL MUMODEL          PACKAGE MUMODEL         CONNECTED TO MODEL MUMODEL          PACKAGE RCH-1            ON UNIT   1015 AT TIME STEP      4, STRESS PERIOD     20

 WEL PACKAGE (WEL-1) FLOW RATES   PERIOD     20   STEP        4
 -----------------------------------------------
   NUMBER   CELLID                    RATE      
 -----------------------------------------------
     1      (1,5,5)              -40000.000     
     2      (1,11,5)              0.0000000     
     3      (1,5,5)               0.0000000     
 -----------------------------------------------




 CHD PACKAGE (CHD-FROM-IBOUND) FLOW RATES   PERIOD     20   STEP        4
 -----------------------------------------------
   NUMBER   CELLID                    RATE      
 -----------------------------------------------
     1      (1,1,1)              -5344.7384     
     2      (1,1,2)              -5344.6870     
     3      (1,1,3)              -5344.2479     
     4      (1,1,4)              -5341.6094     
     5      (1,1,5)              -5333.7277     
     6      (1,1,6)              -5341.6116     
     7      (1,1,7)              -5344.2521     
     8      (1,1,8)              -5344.6925     
     9      (1,1,9)              -5344.7443     
     10     (1,21,1)             -5344.7463     
     11     (1,21,2)             -5344.7445     
     12     (1,21,3)             -5344.7424     
     13     (1,21,4)             -5344.7409     
     14     (1,21,5)             -5344.7398     
     15     (1,21,6)             -5344.7392     
     16     (1,21,7)             -5344.7399     
     17     (1,21,8)             -5344.7424     
     18     (1,21,9)             -5344.7452     
 -----------------------------------------------




 HEAD WILL BE SAVED ON UNIT 1016 AT END OF TIME STEP    4, STRESS PERIOD   20


  VOLUME BUDGET FOR ENTIRE MODEL AT END OF TIME STEP    4, STRESS PERIOD  20
  ---------------------------------------------------------------------------------------------------

     CUMULATIVE VOLUME      L**3       RATES FOR THIS TIME STEP      L**3/T          PACKAGE NAME    
     ------------------                 ------------------------                     ----------------

           IN:                                      IN:
           ---                                      ---
              STO-SS =    26935506.4735                STO-SS =      127975.5577     STORAGE                          
              STO-SY =      822221.5955                STO-SY =        3936.4336     STORAGE                          
                 WEL =           0.0000                   WEL =           0.0000     WEL-1                            
                RCHA =    66241834.1916                  RCHA =        4275.0000     RCH-1                            
                 CHD =           0.0000                   CHD =           0.0000     CHD-FROM-IBOUND                  

            TOTAL IN =    93999562.2606              TOTAL IN =      136186.9913

          OUT:                                     OUT:
          ----                                     ----
              STO-SS =    32138818.0732                STO-SS =           0.0000     STORAGE                          
              STO-SY =      960715.3883                STO-SY =           0.0000     STORAGE                          
                 WEL =     7643435.7106                   WEL =       40000.0000     WEL-1                            
                RCHA =           0.0000                  RCHA =           0.0000     RCH-1                            
                 CHD =    53256597.2004                   CHD =       96186.9915     CHD-FROM-IBOUND                  

           TOTAL OUT =    93999566.3726             TOTAL OUT =      136186.9915

            IN - OUT =          -4.1120              IN - OUT =      -1.7974E-04

 PERCENT DISCREPANCY =          -0.00     PERCENT DISCREPANCY =          -0.00




         TIME SUMMARY AT END OF TIME STEP    4 IN STRESS PERIOD   20
                    SECONDS     MINUTES      HOURS       DAYS        YEARS
                    -----------------------------------------------------------
   TIME STEP LENGTH 2.80517E+05  4675.3      77.921      3.2467     8.88905E-03
 STRESS PERIOD TIME 8.71421E+05  14524.      242.06      10.086     2.76137E-02
         TOTAL TIME 4.81322E+07 8.02204E+05  13370.      557.09      1.5252    


end timestep


start timestep kper="20" kstp="5" mode="normal"

 UBDSV1 SAVING     FLOW-JA-FACE ON UNIT   1015 AT TIME STEP      5, STRESS PERIOD     20
 UBDSV06 SAVING              WEL IN MODEL MUMODEL          PACKAGE MUMODEL         CONNECTED TO MODEL MUMODEL          PACKAGE WEL-1            ON UNIT   1015 AT TIME STEP      5, STRESS PERIOD     20
 UBDSV06 SAVING             RCHA IN MODEL MUMODEL          PACKAGE MUMODEL         CONNECTED TO MODEL MUMODEL          PACKAGE RCH-1            ON UNIT   1015 AT TIME STEP      5, STRESS PERIOD     20

 WEL PACKAGE (WEL-1) FLOW RATES   PERIOD     20   STEP        5
 -----------------------------------------------
   NUMBER   CELLID                    RATE      
 -----------------------------------------------
     1      (1,5,5)              -40000.000     
     2      (1,11,5)              0.0000000     
     3      (1,5,5)               0.0000000     
 -----------------------------------------------




 CHD PACKAGE (CHD-FROM-IBOUND) FLOW RATES   PERIOD     20   STEP        5
 -----------------------------------------------
   NUMBER   CELLID                    RATE      
 -----------------------------------------------
     1      (1,1,1)              -5340.4606     
     2      (1,1,2)              -5340.4036     
     3      (1,1,3)              -5339.9232     
     4      (1,1,4)              -5337.0866     
     5      (1,1,5)              -5328.7727     
     6      (1,1,6)              -5337.0887     
     7      (1,1,7)              -5339.9273     
     8      (1,1,8)              -5340.4090     
     9      (1,1,9)              -5340.4665     
     10     (1,21,1)             -5340.4692     
     11     (1,21,2)             -5340.4674     
     12     (1,21,3)             -5340.4654     
     13     (1,21,4)             -5340.4638     
     14     (1,21,5)             -5340.4627     
     15     (1,21,6)             -5340.4621     
     16     (1,21,7)             -5340.4628     
     17     (1,21,8)             -5340.4653     
     18     (1,21,9)             -5340.4681     
 -----------------------------------------------




 HEAD WILL BE SAVED ON UNIT 1016 AT END OF TIME STEP    5, STRESS PERIOD   20


  VOLUME BUDGET FOR ENTIRE MODEL AT END OF TIME STEP    5, STRESS PERIOD  20
  ---------------------------------------------------------------------------------------------------

     CUMULATIVE VOLUME      L**3       RATES FOR THIS TIME STEP      L**3/T          PACKAGE NAME    
     ------------------                 ------------------------                     ----------------

           IN:                                      IN:
           ---                                      ---
              STO-SS =    27433813.4134                STO-SS =      127899.8727     STORAGE                          
              STO-SY =      837548.1616                STO-SY =        3933.8522     STORAGE                          
                 WEL =           0.0000                   WEL =           0.0000     WEL-1                            
                RCHA =    66258489.8936                  RCHA =        4275.0000     RCH-1                            
                 CHD =           0.0000                   CHD =           0.0000     CHD-FROM-IBOUND                  

            TOTAL IN =    94529851.4685              TOTAL IN =      136108.7249

          OUT:                                     OUT:
          ----                                     ----
              STO-SS =    32138818.0732                STO-SS =           0.0000     STORAGE                          
              STO-SY =      960715.3883                STO-SY =           0.0000     STORAGE                          
                 WEL =     7799278.5365                   WEL =       40000.0000     WEL-1                            
                RCHA =           0.0000                  RCHA =           0.0000     RCH-1                            
                 CHD =    53631043.5836                   CHD =       96108.7252     CHD-FROM-IBOUND                  

           TOTAL OUT =    94529855.5817             TOTAL OUT =      136108.7252

            IN - OUT =          -4.1131              IN - OUT =      -3.0452E-04

 PERCENT DISCREPANCY =          -0.00     PERCENT DISCREPANCY =          -0.00




         TIME SUMMARY AT END OF TIME STEP    5 IN STRESS PERIOD   20
                    SECONDS     MINUTES      HOURS       DAYS        YEARS
                    -----------------------------------------------------------
   TIME STEP LENGTH 3.36621E+05  5610.3      93.506      3.8961     1.06669E-02
 STRESS PERIOD TIME 1.20804E+06  20134.      335.57      13.982     3.82805E-02
         TOTAL TIME 4.84688E+07 8.07814E+05  13464.      560.98      1.5359    


end timestep


start timestep kper="20" kstp="6" mode="normal"

 UBDSV1 SAVING     FLOW-JA-FACE ON UNIT   1015 AT TIME STEP      6, STRESS PERIOD     20
 UBDSV06 SAVING              WEL IN MODEL MUMODEL          PACKAGE MUMODEL         CONNECTED TO MODEL MUMODEL          PACKAGE WEL-1            ON UNIT   1015 AT TIME STEP      6, STRESS PERIOD     20
 UBDSV06 SAVING             RCHA IN MODEL MUMODEL          PACKAGE MUMODEL         CONNECTED TO MODEL MUMODEL          PACKAGE RCH-1            ON UNIT   1015 AT TIME STEP      6, STRESS PERIOD     20

 WEL PACKAGE (WEL-1) FLOW RATES   PERIOD     20   STEP        6
 -----------------------------------------------
   NUMBER   CELLID                    RATE      
 -----------------------------------------------
     1      (1,5,5)              -40000.000     
     2      (1,11,5)              0.0000000     
     3      (1,5,5)               0.0000000     
 -----------------------------------------------




 CHD PACKAGE (CHD-FROM-IBOUND) FLOW RATES   PERIOD     20   STEP        6
 -----------------------------------------------
   NUMBER   CELLID                    RATE      
 -----------------------------------------------
     1      (1,1,1)              -5335.3736     
     2      (1,1,2)              -5335.3091     
     3      (1,1,3)              -5334.7750     
     4      (1,1,4)              -5331.6868     
     5      (1,1,5)              -5322.8383     
     6      (1,1,6)              -5331.6890     
     7      (1,1,7)              -5334.7791     
     8      (1,1,8)              -5335.3145     
     9      (1,1,9)              -5335.3794     
     10     (1,21,1)             -5335.3831     
     11     (1,21,2)             -5335.3813     
     12     (1,21,3)             -5335.3793     
     13     (1,21,4)             -5335.3778     
     14     (1,21,5)             -5335.3767     
     15     (1,21,6)             -5335.3761     
     16     (1,21,7)             -5335.3768     
     17     (1,21,8)             -5335.3793     
     18     (1,21,9)             -5335.3821     
 -----------------------------------------------




 HEAD WILL BE SAVED ON UNIT 1016 AT END OF TIME STEP    6, STRESS PERIOD   20


  VOLUME BUDGET FOR ENTIRE MODEL AT END OF TIME STEP    6, STRESS PERIOD  20
  ---------------------------------------------------------------------------------------------------

     CUMULATIVE VOLUME      L**3       RATES FOR THIS TIME STEP      L**3/T          PACKAGE NAME    
     ------------------                 ------------------------                     ----------------

           IN:                                      IN:
           ---                                      ---
              STO-SS =    28031360.5285                STO-SS =      127809.7792     STORAGE                          
              STO-SY =      855925.6660                STO-SY =        3930.7775     STORAGE                          
                 WEL =           0.0000                   WEL =           0.0000     WEL-1                            
                RCHA =    66278476.7360                  RCHA =        4275.0000     RCH-1                            
                 CHD =           0.0000                   CHD =           0.0000     CHD-FROM-IBOUND                  

            TOTAL IN =    95165762.9305              TOTAL IN =      136015.5568

          OUT:                                     OUT:
          ----                                     ----
              STO-SS =    32138818.0732                STO-SS =           0.0000     STORAGE                          
              STO-SY =      960715.3883                STO-SY =           0.0000     STORAGE                          
                 WEL =     7986289.9275                   WEL =       40000.0000     WEL-1                            
                RCHA =           0.0000                  RCHA =           0.0000     RCH-1                            
                 CHD =    54079943.6569                   CHD =       96015.5573     CHD-FROM-IBOUND                  

           TOTAL OUT =    95165767.0460             TOTAL OUT =      136015.5573

            IN - OUT =          -4.1155              IN - OUT =      -5.0854E-04

 PERCENT DISCREPANCY =          -0.00     PERCENT DISCREPANCY =          -0.00




         TIME SUMMARY AT END OF TIME STEP    6 IN STRESS PERIOD   20
                    SECONDS     MINUTES      HOURS       DAYS        YEARS
                    -----------------------------------------------------------
   TIME STEP LENGTH 4.03945E+05  6732.4      112.21      4.6753     1.28002E-02
 STRESS PERIOD TIME 1.61199E+06  26866.      447.77      18.657     5.10808E-02
         TOTAL TIME 4.88728E+07 8.14546E+05  13576.      565.66      1.5487    


end timestep


start timestep kper="20" kstp="7" mode="normal"

 UBDSV1 SAVING     FLOW-JA-FACE ON UNIT   1015 AT TIME STEP      7, STRESS PERIOD     20
 UBDSV06 SAVING              WEL IN MODEL MUMODEL          PACKAGE MUMODEL         CONNECTED TO MODEL MUMODEL          PACKAGE WEL-1            ON UNIT   1015 AT TIME STEP      7, STRESS PERIOD     20
 UBDSV06 SAVING             RCHA IN MODEL MUMODEL          PACKAGE MUMODEL         CONNECTED TO MODEL MUMODEL          PACKAGE RCH-1            ON UNIT   1015 AT TIME STEP      7, STRESS PERIOD     20

 WEL PACKAGE (WEL-1) FLOW RATES   PERIOD     20   STEP        7
 -----------------------------------------------
   NUMBER   CELLID                    RATE      
 -----------------------------------------------
     1      (1,5,5)              -40000.000     
     2      (1,11,5)              0.0000000     
     3      (1,5,5)               0.0000000     
 -----------------------------------------------




 CHD PACKAGE (CHD-FROM-IBOUND) FLOW RATES   PERIOD     20   STEP        7
 -----------------------------------------------
   NUMBER   CELLID                    RATE      
 -----------------------------------------------
     1      (1,1,1)              -5329.3345     
     2      (1,1,2)              -5329.2598     
     3      (1,1,3)              -5328.6552     
     4      (1,1,4)              -5325.2449     
     5      (1,1,5)              -5315.7315     
     6      (1,1,6)              -5325.2470     
     7      (1,1,7)              -5328.6593     
     8      (1,1,8)              -5329.2652     
     9      (1,1,9)              -5329.3402     
     10     (1,21,1)             -5329.3452     
     11     (1,21,2)             -5329.3435     
     12     (1,21,3)             -5329.3415     
     13     (1,21,4)             -5329.3400     
     14     (1,21,5)             -5329.3389     
     15     (1,21,6)             -5329.3383     
     16     (1,21,7)             -5329.3391     
     17     (1,21,8)             -5329.3415     
     18     (1,21,9)             -5329.3443     
 -----------------------------------------------




 HEAD WILL BE SAVED ON UNIT 1016 AT END OF TIME STEP    7, STRESS PERIOD   20


  VOLUME BUDGET FOR ENTIRE MODEL AT END OF TIME STEP    7, STRESS PERIOD  20
  ---------------------------------------------------------------------------------------------------

     CUMULATIVE VOLUME      L**3       RATES FOR THIS TIME STEP      L**3/T          PACKAGE NAME    
     ------------------                 ------------------------                     ----------------

           IN:                                      IN:
           ---                                      ---
              STO-SS =    28747816.2454                STO-SS =      127702.6875     STORAGE                          
              STO-SY =      877958.1599                STO-SY =        3927.1215     STORAGE                          
                 WEL =           0.0000                   WEL =           0.0000     WEL-1                            
                RCHA =    66302460.9469                  RCHA =        4275.0000     RCH-1                            
                 CHD =           0.0000                   CHD =           0.0000     CHD-FROM-IBOUND                  

            TOTAL IN =    95928235.3522              TOTAL IN =      135904.8090

          OUT:                                     OUT:
          ----                                     ----
              STO-SS =    32138818.0732                STO-SS =           0.0000     STORAGE                          
              STO-SY =      960715.3883                STO-SY =           0.0000     STORAGE                          
                 WEL =     8210703.5968                   WEL =       40000.0000     WEL-1                            
                RCHA =           0.0000                  RCHA =           0.0000     RCH-1                            
                 CHD =    54618002.4141                   CHD =       95904.8099     CHD-FROM-IBOUND                  

           TOTAL OUT =    95928239.4725             TOTAL OUT =      135904.8099

            IN - OUT =          -4.1203              IN - OUT =      -8.4519E-04

 PERCENT DISCREPANCY =          -0.00     PERCENT DISCREPANCY =          -0.00




         TIME SUMMARY AT END OF TIME STEP    7 IN STRESS PERIOD   20
                    SECONDS     MINUTES      HOURS       DAYS        YEARS
                    -----------------------------------------------------------
   TIME STEP LENGTH 4.84734E+05  8078.9      134.65      5.6103     1.53603E-02
 STRESS PERIOD TIME 2.09672E+06  34945.      582.42      24.268     6.64410E-02
         TOTAL TIME 4.93575E+07 8.22625E+05  13710.      571.27      1.5640    


end timestep


start timestep kper="20" kstp="8" mode="normal"

 UBDSV1 SAVING     FLOW-JA-FACE ON UNIT   1015 AT TIME STEP      8, STRESS PERIOD     20
 UBDSV06 SAVING              WEL IN MODEL MUMODEL          PACKAGE MUMODEL         CONNECTED TO MODEL MUMODEL          PACKAGE WEL-1            ON UNIT   1015 AT TIME STEP      8, STRESS PERIOD     20
 UBDSV06 SAVING             RCHA IN MODEL MUMODEL          PACKAGE MUMODEL         CONNECTED TO MODEL MUMODEL          PACKAGE RCH-1            ON UNIT   1015 AT TIME STEP      8, STRESS PERIOD     20

 WEL PACKAGE (WEL-1) FLOW RATES   PERIOD     20   STEP        8
 -----------------------------------------------
   NUMBER   CELLID                    RATE      
 -----------------------------------------------
     1      (1,5,5)              -40000.000     
     2      (1,11,5)              0.0000000     
     3      (1,5,5)               0.0000000     
 -----------------------------------------------




 CHD PACKAGE (CHD-FROM-IBOUND) FLOW RATES   PERIOD     20   STEP        8
 -----------------------------------------------
   NUMBER   CELLID                    RATE      
 -----------------------------------------------
     1      (1,1,1)              -5322.1792     
     2      (1,1,2)              -5322.0906     
     3      (1,1,3)              -5321.3918     
     4      (1,1,4)              -5317.5649     
     5      (1,1,5)              -5307.2217     
     6      (1,1,6)              -5317.5670     
     7      (1,1,7)              -5321.3958     
     8      (1,1,8)              -5322.0959     
     9      (1,1,9)              -5322.1848     
     10     (1,21,1)             -5322.1917     
     11     (1,21,2)             -5322.1900     
     12     (1,21,3)             -5322.1881     
     13     (1,21,4)             -5322.1866     
     14     (1,21,5)             -5322.1855     
     15     (1,21,6)             -5322.1850     
     16     (1,21,7)             -5322.1857     
     17     (1,21,8)             -5322.1882     
     18     (1,21,9)             -5322.1909     
 -----------------------------------------------




 HEAD WILL BE SAVED ON UNIT 1016 AT END OF TIME STEP    8, STRESS PERIOD   20


  VOLUME BUDGET FOR ENTIRE MODEL AT END OF TIME STEP    8, STRESS PERIOD  20
  ---------------------------------------------------------------------------------------------------

     CUMULATIVE VOLUME      L**3       RATES FOR THIS TIME STEP      L**3/T          PACKAGE NAME    
     ------------------                 ------------------------                     ----------------

           IN:                                      IN:
           ---                                      ---
              STO-SS =    29606707.4938                STO-SS =      127575.5990     STORAGE                          
              STO-SY =      904367.9441                STO-SY =        3922.7831     STORAGE                          
                 WEL =           0.0000                   WEL =           0.0000     WEL-1                            
                RCHA =    66331242.0000                  RCHA =        4275.0000     RCH-1                            
                 CHD =           0.0000                   CHD =           0.0000     CHD-FROM-IBOUND                  

            TOTAL IN =    96842317.4379              TOTAL IN =      135773.3820

          OUT:                                     OUT:
          ----                                     ----
              STO-SS =    32138818.0732                STO-SS =           0.0000     STORAGE                          
              STO-SY =      960715.3883                STO-SY =           0.0000     STORAGE                          
                 WEL =     8480000.0000                   WEL =       40000.0000     WEL-1                            
                RCHA =           0.0000                  RCHA =           0.0000     RCH-1                            
                 CHD =    55262788.1059                   CHD =       95773.3834     CHD-FROM-IBOUND                  

           TOTAL OUT =    96842321.5675             TOTAL OUT =      135773.3834

            IN - OUT =          -4.1296              IN - OUT =      -1.3889E-03

 PERCENT DISCREPANCY =          -0.00     PERCENT DISCREPANCY =          -0.00




         TIME SUMMARY AT END OF TIME STEP    8 IN STRESS PERIOD   20
                    SECONDS     MINUTES      HOURS       DAYS        YEARS
                    -----------------------------------------------------------
   TIME STEP LENGTH 5.81680E+05  9694.7      161.58      6.7324     1.84323E-02
 STRESS PERIOD TIME 2.67840E+06  44640.      744.00      31.000     8.48734E-02
         TOTAL TIME 4.99392E+07 8.32320E+05  13872.      578.00      1.5825    


end timestep


start timestep kper="21" kstp="1" mode="normal"


 OUTPUT CONTROL FOR STRESS PERIOD 21 IS REPEATED USING SETTINGS FROM A PREVIOUS STRESS PERIOD.


 STRESS PERIOD 21 IS TRANSIENT


 REUSING WELS FROM LAST STRESS PERIOD

 REUSING RCHS FROM LAST STRESS PERIOD

 REUSING CHDS FROM LAST STRESS PERIOD
 UBDSV1 SAVING     FLOW-JA-FACE ON UNIT   1015 AT TIME STEP      1, STRESS PERIOD     21
 UBDSV06 SAVING              WEL IN MODEL MUMODEL          PACKAGE MUMODEL         CONNECTED TO MODEL MUMODEL          PACKAGE WEL-1            ON UNIT   1015 AT TIME STEP      1, STRESS PERIOD     21
 UBDSV06 SAVING             RCHA IN MODEL MUMODEL          PACKAGE MUMODEL         CONNECTED TO MODEL MUMODEL          PACKAGE RCH-1            ON UNIT   1015 AT TIME STEP      1, STRESS PERIOD     21

 WEL PACKAGE (WEL-1) FLOW RATES   PERIOD     21   STEP        1
 -----------------------------------------------
   NUMBER   CELLID                    RATE      
 -----------------------------------------------
     1      (1,5,5)              -40000.000     
     2      (1,11,5)              0.0000000     
     3      (1,5,5)               0.0000000     
 -----------------------------------------------




 CHD PACKAGE (CHD-FROM-IBOUND) FLOW RATES   PERIOD     21   STEP        1
 -----------------------------------------------
   NUMBER   CELLID                    RATE      
 -----------------------------------------------
     1      (1,1,1)              -5320.1888     
     2      (1,1,2)              -5320.0962     
     3      (1,1,3)              -5319.3704     
     4      (1,1,4)              -5315.4247     
     5      (1,1,5)              -5304.8470     
     6      (1,1,6)              -5315.4268     
     7      (1,1,7)              -5319.3744     
     8      (1,1,8)              -5320.1015     
     9      (1,1,9)              -5320.1945     
     10     (1,21,1)             -5320.2019     
     11     (1,21,2)             -5320.2002     
     12     (1,21,3)             -5320.1983     
     13     (1,21,4)             -5320.1968     
     14     (1,21,5)             -5320.1957     
     15     (1,21,6)             -5320.1952     
     16     (1,21,7)             -5320.1960     
     17     (1,21,8)             -5320.1984     
     18     (1,21,9)             -5320.2011     
 -----------------------------------------------




 HEAD WILL BE SAVED ON UNIT 1016 AT END OF TIME STEP    1, STRESS PERIOD   21


  VOLUME BUDGET FOR ENTIRE MODEL AT END OF TIME STEP    1, STRESS PERIOD  21
  ---------------------------------------------------------------------------------------------------

     CUMULATIVE VOLUME      L**3       RATES FOR THIS TIME STEP      L**3/T          PACKAGE NAME    
     ------------------                 ------------------------                     ----------------

           IN:                                      IN:
           ---                                      ---
              STO-SS =    29846339.9459                STO-SS =      127539.2306     STORAGE                          
              STO-SY =      911738.0426                STO-SY =        3922.5768     STORAGE                          
                 WEL =           0.0000                   WEL =           0.0000     WEL-1                            
                RCHA =    66339274.2637                  RCHA =        4275.0000     RCH-1                            
                 CHD =           0.0000                   CHD =           0.0000     CHD-FROM-IBOUND                  

            TOTAL IN =    97097352.2522              TOTAL IN =      135736.8074

          OUT:                                     OUT:
          ----                                     ----
              STO-SS =    32138818.0732                STO-SS =           0.0000     STORAGE                          
              STO-SY =      960715.3883                STO-SY =           0.0000     STORAGE                          
                 WEL =     8555155.6838                   WEL =       40000.0000     WEL-1                            
                RCHA =           0.0000                  RCHA =           0.0000     RCH-1                            
                 CHD =    55442667.2370                   CHD =       95736.8077     CHD-FROM-IBOUND                  

           TOTAL OUT =    97097356.3823             TOTAL OUT =      135736.8077

            IN - OUT =          -4.1301              IN - OUT =      -2.5848E-04

 PERCENT DISCREPANCY =          -0.00     PERCENT DISCREPANCY =          -0.00




         TIME SUMMARY AT END OF TIME STEP    1 IN STRESS PERIOD   21
                    SECONDS     MINUTES      HOURS       DAYS        YEARS
                    -----------------------------------------------------------
   TIME STEP LENGTH 1.62336E+05  2705.6      45.093      1.8789     5.14413E-03
 STRESS PERIOD TIME 1.62336E+05  2705.6      45.093      1.8789     5.14413E-03
         TOTAL TIME 5.01015E+07 8.35026E+05  13917.      579.88      1.5876    


end timestep


start timestep kper="21" kstp="2" mode="normal"

 UBDSV1 SAVING     FLOW-JA-FACE ON UNIT   1015 AT TIME STEP      2, STRESS PERIOD     21
 UBDSV06 SAVING              WEL IN MODEL MUMODEL          PACKAGE MUMODEL         CONNECTED TO MODEL MUMODEL          PACKAGE WEL-1            ON UNIT   1015 AT TIME STEP      2, STRESS PERIOD     21
 UBDSV06 SAVING             RCHA IN MODEL MUMODEL          PACKAGE MUMODEL         CONNECTED TO MODEL MUMODEL          PACKAGE RCH-1            ON UNIT   1015 AT TIME STEP      2, STRESS PERIOD     21

 WEL PACKAGE (WEL-1) FLOW RATES   PERIOD     21   STEP        2
 -----------------------------------------------
   NUMBER   CELLID                    RATE      
 -----------------------------------------------
     1      (1,5,5)              -40000.000     
     2      (1,11,5)              0.0000000     
     3      (1,5,5)               0.0000000     
 -----------------------------------------------




 CHD PACKAGE (CHD-FROM-IBOUND) FLOW RATES   PERIOD     21   STEP        2
 -----------------------------------------------
   NUMBER   CELLID                    RATE      
 -----------------------------------------------
     1      (1,1,1)              -5317.8111     
     2      (1,1,2)              -5317.7134     
     3      (1,1,3)              -5316.9540     
     4      (1,1,4)              -5312.8626     
     5      (1,1,5)              -5302.0003     
     6      (1,1,6)              -5312.8647     
     7      (1,1,7)              -5316.9580     
     8      (1,1,8)              -5317.7186     
     9      (1,1,9)              -5317.8167     
     10     (1,21,1)             -5317.8248     
     11     (1,21,2)             -5317.8232     
     12     (1,21,3)             -5317.8212     
     13     (1,21,4)             -5317.8197     
     14     (1,21,5)             -5317.8187     
     15     (1,21,6)             -5317.8182     
     16     (1,21,7)             -5317.8189     
     17     (1,21,8)             -5317.8213     
     18     (1,21,9)             -5317.8240     
 -----------------------------------------------




 HEAD WILL BE SAVED ON UNIT 1016 AT END OF TIME STEP    2, STRESS PERIOD   21


  VOLUME BUDGET FOR ENTIRE MODEL AT END OF TIME STEP    2, STRESS PERIOD  21
  ---------------------------------------------------------------------------------------------------

     CUMULATIVE VOLUME      L**3       RATES FOR THIS TIME STEP      L**3/T          PACKAGE NAME    
     ------------------                 ------------------------                     ----------------

           IN:                                      IN:
           ---                                      ---
              STO-SS =    30133803.6075                STO-SS =      127496.9712     STORAGE                          
              STO-SY =      920578.8713                STO-SY =        3921.1178     STORAGE                          
                 WEL =           0.0000                   WEL =           0.0000     WEL-1                            
                RCHA =    66348912.9802                  RCHA =        4275.0000     RCH-1                            
                 CHD =           0.0000                   CHD =           0.0000     CHD-FROM-IBOUND                  

            TOTAL IN =    97403295.4590              TOTAL IN =      135693.0890

          OUT:                                     OUT:
          ----                                     ----
              STO-SS =    32138818.0732                STO-SS =           0.0000     STORAGE                          
              STO-SY =      960715.3883                STO-SY =           0.0000     STORAGE                          
                 WEL =     8645342.5043                   WEL =       40000.0000     WEL-1                            
                RCHA =           0.0000                  RCHA =           0.0000     RCH-1                            
                 CHD =    55658423.6242                   CHD =       95693.0895     CHD-FROM-IBOUND                  

           TOTAL OUT =    97403299.5901             TOTAL OUT =      135693.0895

            IN - OUT =          -4.1311              IN - OUT =      -4.4333E-04

 PERCENT DISCREPANCY =          -0.00     PERCENT DISCREPANCY =          -0.00




         TIME SUMMARY AT END OF TIME STEP    2 IN STRESS PERIOD   21
                    SECONDS     MINUTES      HOURS       DAYS        YEARS
                    -----------------------------------------------------------
   TIME STEP LENGTH 1.94804E+05  3246.7      54.112      2.2547     6.17295E-03
 STRESS PERIOD TIME 3.57140E+05  5952.3      99.206      4.1336     1.13171E-02
         TOTAL TIME 5.02963E+07 8.38272E+05  13971.      582.13      1.5938    


end timestep


start timestep kper="21" kstp="3" mode="normal"

 UBDSV1 SAVING     FLOW-JA-FACE ON UNIT   1015 AT TIME STEP      3, STRESS PERIOD     21
 UBDSV06 SAVING              WEL IN MODEL MUMODEL          PACKAGE MUMODEL         CONNECTED TO MODEL MUMODEL          PACKAGE WEL-1            ON UNIT   1015 AT TIME STEP      3, STRESS PERIOD     21
 UBDSV06 SAVING             RCHA IN MODEL MUMODEL          PACKAGE MUMODEL         CONNECTED TO MODEL MUMODEL          PACKAGE RCH-1            ON UNIT   1015 AT TIME STEP      3, STRESS PERIOD     21

 WEL PACKAGE (WEL-1) FLOW RATES   PERIOD     21   STEP        3
 -----------------------------------------------
   NUMBER   CELLID                    RATE      
 -----------------------------------------------
     1      (1,5,5)              -40000.000     
     2      (1,11,5)              0.0000000     
     3      (1,5,5)               0.0000000     
 -----------------------------------------------




 CHD PACKAGE (CHD-FROM-IBOUND) FLOW RATES   PERIOD     21   STEP        3
 -----------------------------------------------
   NUMBER   CELLID                    RATE      
 -----------------------------------------------
     1      (1,1,1)              -5314.9722     
     2      (1,1,2)              -5314.8682     
     3      (1,1,3)              -5314.0669     
     4      (1,1,4)              -5309.7956     
     5      (1,1,5)              -5298.5869     
     6      (1,1,6)              -5309.7977     
     7      (1,1,7)              -5314.0709     
     8      (1,1,8)              -5314.8734     
     9      (1,1,9)              -5314.9778     
     10     (1,21,1)             -5314.9868     
     11     (1,21,2)             -5314.9852     
     12     (1,21,3)             -5314.9832     
     13     (1,21,4)             -5314.9818     
     14     (1,21,5)             -5314.9807     
     15     (1,21,6)             -5314.9802     
     16     (1,21,7)             -5314.9810     
     17     (1,21,8)             -5314.9834     
     18     (1,21,9)             -5314.9860     
 -----------------------------------------------




 HEAD WILL BE SAVED ON UNIT 1016 AT END OF TIME STEP    3, STRESS PERIOD   21


  VOLUME BUDGET FOR ENTIRE MODEL AT END OF TIME STEP    3, STRESS PERIOD  21
  ---------------------------------------------------------------------------------------------------

     CUMULATIVE VOLUME      L**3       RATES FOR THIS TIME STEP      L**3/T          PACKAGE NAME    
     ------------------                 ------------------------                     ----------------

           IN:                                      IN:
           ---                                      ---
              STO-SS =    30478623.3972                STO-SS =      127446.4819     STORAGE                          
              STO-SY =      931183.1518                STO-SY =        3919.3755     STORAGE                          
                 WEL =           0.0000                   WEL =           0.0000     WEL-1                            
                RCHA =    66360479.4399                  RCHA =        4275.0000     RCH-1                            
                 CHD =           0.0000                   CHD =           0.0000     CHD-FROM-IBOUND                  

            TOTAL IN =    97770285.9890              TOTAL IN =      135640.8574

          OUT:                                     OUT:
          ----                                     ----
              STO-SS =    32138818.0732                STO-SS =           0.0000     STORAGE                          
              STO-SY =      960715.3883                STO-SY =           0.0000     STORAGE                          
                 WEL =     8753566.6890                   WEL =       40000.0000     WEL-1                            
                RCHA =           0.0000                  RCHA =           0.0000     RCH-1                            
                 CHD =    55917189.9698                   CHD =       95640.8575     CHD-FROM-IBOUND                  

           TOTAL OUT =    97770290.1203             TOTAL OUT =      135640.8575

            IN - OUT =          -4.1314              IN - OUT =      -9.8101E-05

 PERCENT DISCREPANCY =          -0.00     PERCENT DISCREPANCY =          -0.00




         TIME SUMMARY AT END OF TIME STEP    3 IN STRESS PERIOD   21
                    SECONDS     MINUTES      HOURS       DAYS        YEARS
                    -----------------------------------------------------------
   TIME STEP LENGTH 2.33764E+05  3896.1      64.935      2.7056     7.40754E-03
 STRESS PERIOD TIME 5.90904E+05  9848.4      164.14      6.8392     1.87246E-02
         TOTAL TIME 5.05301E+07 8.42168E+05  14036.      584.84      1.6012    


end timestep


start timestep kper="21" kstp="4" mode="normal"

 UBDSV1 SAVING     FLOW-JA-FACE ON UNIT   1015 AT TIME STEP      4, STRESS PERIOD     21
 UBDSV06 SAVING              WEL IN MODEL MUMODEL          PACKAGE MUMODEL         CONNECTED TO MODEL MUMODEL          PACKAGE WEL-1            ON UNIT   1015 AT TIME STEP      4, STRESS PERIOD     21
 UBDSV06 SAVING             RCHA IN MODEL MUMODEL          PACKAGE MUMODEL         CONNECTED TO MODEL MUMODEL          PACKAGE RCH-1            ON UNIT   1015 AT TIME STEP      4, STRESS PERIOD     21

 WEL PACKAGE (WEL-1) FLOW RATES   PERIOD     21   STEP        4
 -----------------------------------------------
   NUMBER   CELLID                    RATE      
 -----------------------------------------------
     1      (1,5,5)              -40000.000     
     2      (1,11,5)              0.0000000     
     3      (1,5,5)               0.0000000     
 -----------------------------------------------




 CHD PACKAGE (CHD-FROM-IBOUND) FLOW RATES   PERIOD     21   STEP        4
 -----------------------------------------------
   NUMBER   CELLID                    RATE      
 -----------------------------------------------
     1      (1,1,1)              -5311.5860     
     2      (1,1,2)              -5311.4739     
     3      (1,1,3)              -5310.6200     
     4      (1,1,4)              -5306.1256     
     5      (1,1,5)              -5294.4940     
     6      (1,1,6)              -5306.1277     
     7      (1,1,7)              -5310.6239     
     8      (1,1,8)              -5311.4791     
     9      (1,1,9)              -5311.5916     
     10     (1,21,1)             -5311.6018     
     11     (1,21,2)             -5311.6002     
     12     (1,21,3)             -5311.5982     
     13     (1,21,4)             -5311.5968     
     14     (1,21,5)             -5311.5957     
     15     (1,21,6)             -5311.5952     
     16     (1,21,7)             -5311.5960     
     17     (1,21,8)             -5311.5984     
     18     (1,21,9)             -5311.6010     
 -----------------------------------------------




 HEAD WILL BE SAVED ON UNIT 1016 AT END OF TIME STEP    4, STRESS PERIOD   21


  VOLUME BUDGET FOR ENTIRE MODEL AT END OF TIME STEP    4, STRESS PERIOD  21
  ---------------------------------------------------------------------------------------------------

     CUMULATIVE VOLUME      L**3       RATES FOR THIS TIME STEP      L**3/T          PACKAGE NAME    
     ------------------                 ------------------------                     ----------------

           IN:                                      IN:
           ---                                      ---
              STO-SS =    30892211.4521                STO-SS =      127386.2080     STORAGE                          
              STO-SY =      943901.5401                STO-SY =        3917.2970     STORAGE                          
                 WEL =           0.0000                   WEL =           0.0000     WEL-1                            
                RCHA =    66374359.1916                  RCHA =        4275.0000     RCH-1                            
                 CHD =           0.0000                   CHD =           0.0000     CHD-FROM-IBOUND                  

            TOTAL IN =    98210472.1838              TOTAL IN =      135578.5050

          OUT:                                     OUT:
          ----                                     ----
              STO-SS =    32138818.0732                STO-SS =           0.0000     STORAGE                          
              STO-SY =      960715.3883                STO-SY =           0.0000     STORAGE                          
                 WEL =     8883435.7106                   WEL =       40000.0000     WEL-1                            
                RCHA =           0.0000                  RCHA =           0.0000     RCH-1                            
                 CHD =    56227507.1436                   CHD =       95578.5052     CHD-FROM-IBOUND                  

           TOTAL OUT =    98210476.3157             TOTAL OUT =      135578.5052

            IN - OUT =          -4.1319              IN - OUT =      -1.6117E-04

 PERCENT DISCREPANCY =          -0.00     PERCENT DISCREPANCY =          -0.00




         TIME SUMMARY AT END OF TIME STEP    4 IN STRESS PERIOD   21
                    SECONDS     MINUTES      HOURS       DAYS        YEARS
                    -----------------------------------------------------------
   TIME STEP LENGTH 2.80517E+05  4675.3      77.921      3.2467     8.88905E-03
 STRESS PERIOD TIME 8.71421E+05  14524.      242.06      10.086     2.76137E-02
         TOTAL TIME 5.08106E+07 8.46844E+05  14114.      588.09      1.6101    


end timestep


start timestep kper="21" kstp="5" mode="normal"

 UBDSV1 SAVING     FLOW-JA-FACE ON UNIT   1015 AT TIME STEP      5, STRESS PERIOD     21
 UBDSV06 SAVING              WEL IN MODEL MUMODEL          PACKAGE MUMODEL         CONNECTED TO MODEL MUMODEL          PACKAGE WEL-1            ON UNIT   1015 AT TIME STEP      5, STRESS PERIOD     21
 UBDSV06 SAVING             RCHA IN MODEL MUMODEL          PACKAGE MUMODEL         CONNECTED TO MODEL MUMODEL          PACKAGE RCH-1            ON UNIT   1015 AT TIME STEP      5, STRESS PERIOD     21

 WEL PACKAGE (WEL-1) FLOW RATES   PERIOD     21   STEP        5
 -----------------------------------------------
   NUMBER   CELLID                    RATE      
 -----------------------------------------------
     1      (1,5,5)              -40000.000     
     2      (1,11,5)              0.0000000     
     3      (1,5,5)               0.0000000     
 -----------------------------------------------




 CHD PACKAGE (CHD-FROM-IBOUND) FLOW RATES   PERIOD     21   STEP        5
 -----------------------------------------------
   NUMBER   CELLID                    RATE      
 -----------------------------------------------
     1      (1,1,1)              -5307.5518     
     2      (1,1,2)              -5307.4292     
     3      (1,1,3)              -5306.5085     
     4      (1,1,4)              -5301.7360     
     5      (1,1,5)              -5289.5867     
     6      (1,1,6)              -5301.7381     
     7      (1,1,7)              -5306.5124     
     8      (1,1,8)              -5307.4343     
     9      (1,1,9)              -5307.5573     
     10     (1,21,1)             -5307.5690     
     11     (1,21,2)             -5307.5674     
     12     (1,21,3)             -5307.5655     
     13     (1,21,4)             -5307.5640     
     14     (1,21,5)             -5307.5630     
     15     (1,21,6)             -5307.5625     
     16     (1,21,7)             -5307.5633     
     17     (1,21,8)             -5307.5657     
     18     (1,21,9)             -5307.5683     
 -----------------------------------------------




 HEAD WILL BE SAVED ON UNIT 1016 AT END OF TIME STEP    5, STRESS PERIOD   21


  VOLUME BUDGET FOR ENTIRE MODEL AT END OF TIME STEP    5, STRESS PERIOD  21
  ---------------------------------------------------------------------------------------------------

     CUMULATIVE VOLUME      L**3       RATES FOR THIS TIME STEP      L**3/T          PACKAGE NAME    
     ------------------                 ------------------------                     ----------------

           IN:                                      IN:
           ---                                      ---
              STO-SS =    31388237.0469                STO-SS =      127314.3225     STORAGE                          
              STO-SY =      959153.9570                STO-SY =        3914.8204     STORAGE                          
                 WEL =           0.0000                   WEL =           0.0000     WEL-1                            
                RCHA =    66391014.8936                  RCHA =        4275.0000     RCH-1                            
                 CHD =           0.0000                   CHD =           0.0000     CHD-FROM-IBOUND                  

            TOTAL IN =    98738405.8975              TOTAL IN =      135504.1429

          OUT:                                     OUT:
          ----                                     ----
              STO-SS =    32138818.0732                STO-SS =           0.0000     STORAGE                          
              STO-SY =      960715.3883                STO-SY =           0.0000     STORAGE                          
                 WEL =     9039278.5365                   WEL =       40000.0000     WEL-1                            
                RCHA =           0.0000                  RCHA =           0.0000     RCH-1                            
                 CHD =    56599598.0324                   CHD =       95504.1432     CHD-FROM-IBOUND                  

           TOTAL OUT =    98738410.0304             TOTAL OUT =      135504.1432

            IN - OUT =          -4.1329              IN - OUT =      -2.7175E-04

 PERCENT DISCREPANCY =          -0.00     PERCENT DISCREPANCY =          -0.00




         TIME SUMMARY AT END OF TIME STEP    5 IN STRESS PERIOD   21
                    SECONDS     MINUTES      HOURS       DAYS        YEARS
                    -----------------------------------------------------------
   TIME STEP LENGTH 3.36621E+05  5610.3      93.506      3.8961     1.06669E-02
 STRESS PERIOD TIME 1.20804E+06  20134.      335.57      13.982     3.82805E-02
         TOTAL TIME 5.11472E+07 8.52454E+05  14208.      591.98      1.6208    


end timestep


start timestep kper="21" kstp="6" mode="normal"

 UBDSV1 SAVING     FLOW-JA-FACE ON UNIT   1015 AT TIME STEP      6, STRESS PERIOD     21
 UBDSV06 SAVING              WEL IN MODEL MUMODEL          PACKAGE MUMODEL         CONNECTED TO MODEL MUMODEL          PACKAGE WEL-1            ON UNIT   1015 AT TIME STEP      6, STRESS PERIOD     21
 UBDSV06 SAVING             RCHA IN MODEL MUMODEL          PACKAGE MUMODEL         CONNECTED TO MODEL MUMODEL          PACKAGE RCH-1            ON UNIT   1015 AT TIME STEP      6, STRESS PERIOD     21

 WEL PACKAGE (WEL-1) FLOW RATES   PERIOD     21   STEP        6
 -----------------------------------------------
   NUMBER   CELLID                    RATE      
 -----------------------------------------------
     1      (1,5,5)              -40000.000     
     2      (1,11,5)              0.0000000     
     3      (1,5,5)               0.0000000     
 -----------------------------------------------




 CHD PACKAGE (CHD-FROM-IBOUND) FLOW RATES   PERIOD     21   STEP        6
 -----------------------------------------------
   NUMBER   CELLID                    RATE      
 -----------------------------------------------
     1      (1,1,1)              -5302.7518     
     2      (1,1,2)              -5302.6156     
     3      (1,1,3)              -5301.6095     
     4      (1,1,4)              -5296.4880     
     5      (1,1,5)              -5283.7033     
     6      (1,1,6)              -5296.4900     
     7      (1,1,7)              -5301.6134     
     8      (1,1,8)              -5302.6207     
     9      (1,1,9)              -5302.7573     
     10     (1,21,1)             -5302.7711     
     11     (1,21,2)             -5302.7695     
     12     (1,21,3)             -5302.7676     
     13     (1,21,4)             -5302.7662     
     14     (1,21,5)             -5302.7651     
     15     (1,21,6)             -5302.7647     
     16     (1,21,7)             -5302.7655     
     17     (1,21,8)             -5302.7679     
     18     (1,21,9)             -5302.7704     
 -----------------------------------------------




 HEAD WILL BE SAVED ON UNIT 1016 AT END OF TIME STEP    6, STRESS PERIOD   21


  VOLUME BUDGET FOR ENTIRE MODEL AT END OF TIME STEP    6, STRESS PERIOD  21
  ---------------------------------------------------------------------------------------------------

     CUMULATIVE VOLUME      L**3       RATES FOR THIS TIME STEP      L**3/T          PACKAGE NAME    
     ------------------                 ------------------------                     ----------------

           IN:                                      IN:
           ---                                      ---
              STO-SS =    31983067.3751                STO-SS =      127228.6837     STORAGE                          
              STO-SY =      977443.0800                STO-SY =        3911.8736     STORAGE                          
                 WEL =           0.0000                   WEL =           0.0000     WEL-1                            
                RCHA =    66411001.7360                  RCHA =        4275.0000     RCH-1                            
                 CHD =           0.0000                   CHD =           0.0000     CHD-FROM-IBOUND                  

            TOTAL IN =    99371512.1910              TOTAL IN =      135415.5573

          OUT:                                     OUT:
          ----                                     ----
              STO-SS =    32138818.0732                STO-SS =           0.0000     STORAGE                          
              STO-SY =      960715.3883                STO-SY =           0.0000     STORAGE                          
                 WEL =     9226289.9275                   WEL =       40000.0000     WEL-1                            
                RCHA =           0.0000                  RCHA =           0.0000     RCH-1                            
                 CHD =    57045692.9370                   CHD =       95415.5577     CHD-FROM-IBOUND                  

           TOTAL OUT =    99371516.3261             TOTAL OUT =      135415.5577

            IN - OUT =          -4.1351              IN - OUT =      -4.5432E-04

 PERCENT DISCREPANCY =          -0.00     PERCENT DISCREPANCY =          -0.00




         TIME SUMMARY AT END OF TIME STEP    6 IN STRESS PERIOD   21
                    SECONDS     MINUTES      HOURS       DAYS        YEARS
                    -----------------------------------------------------------
   TIME STEP LENGTH 4.03945E+05  6732.4      112.21      4.6753     1.28002E-02
 STRESS PERIOD TIME 1.61199E+06  26866.      447.77      18.657     5.10808E-02
         TOTAL TIME 5.15512E+07 8.59186E+05  14320.      596.66      1.6336    


end timestep


start timestep kper="21" kstp="7" mode="normal"

 UBDSV1 SAVING     FLOW-JA-FACE ON UNIT   1015 AT TIME STEP      7, STRESS PERIOD     21
 UBDSV06 SAVING              WEL IN MODEL MUMODEL          PACKAGE MUMODEL         CONNECTED TO MODEL MUMODEL          PACKAGE WEL-1            ON UNIT   1015 AT TIME STEP      7, STRESS PERIOD     21
 UBDSV06 SAVING             RCHA IN MODEL MUMODEL          PACKAGE MUMODEL         CONNECTED TO MODEL MUMODEL          PACKAGE RCH-1            ON UNIT   1015 AT TIME STEP      7, STRESS PERIOD     21

 WEL PACKAGE (WEL-1) FLOW RATES   PERIOD     21   STEP        7
 -----------------------------------------------
   NUMBER   CELLID                    RATE      
 -----------------------------------------------
     1      (1,5,5)              -40000.000     
     2      (1,11,5)              0.0000000     
     3      (1,5,5)               0.0000000     
 -----------------------------------------------




 CHD PACKAGE (CHD-FROM-IBOUND) FLOW RATES   PERIOD     21   STEP        7
 -----------------------------------------------
   NUMBER   CELLID                    RATE      
 -----------------------------------------------
     1      (1,1,1)              -5297.0500     
     2      (1,1,2)              -5296.8958     
     3      (1,1,3)              -5295.7791     
     4      (1,1,4)              -5290.2165     
     5      (1,1,5)              -5276.6495     
     6      (1,1,6)              -5290.2185     
     7      (1,1,7)              -5295.7830     
     8      (1,1,8)              -5296.9008     
     9      (1,1,9)              -5297.0555     
     10     (1,21,1)             -5297.0720     
     11     (1,21,2)             -5297.0704     
     12     (1,21,3)             -5297.0686     
     13     (1,21,4)             -5297.0671     
     14     (1,21,5)             -5297.0661     
     15     (1,21,6)             -5297.0657     
     16     (1,21,7)             -5297.0665     
     17     (1,21,8)             -5297.0688     
     18     (1,21,9)             -5297.0714     
 -----------------------------------------------




 HEAD WILL BE SAVED ON UNIT 1016 AT END OF TIME STEP    7, STRESS PERIOD   21


  VOLUME BUDGET FOR ENTIRE MODEL AT END OF TIME STEP    7, STRESS PERIOD  21
  ---------------------------------------------------------------------------------------------------

     CUMULATIVE VOLUME      L**3       RATES FOR THIS TIME STEP      L**3/T          PACKAGE NAME    
     ------------------                 ------------------------                     ----------------

           IN:                                      IN:
           ---                                      ---
              STO-SS =    32696292.1174                STO-SS =      127126.7913     STORAGE                          
              STO-SY =      999370.3898                STO-SY =        3908.3733     STORAGE                          
                 WEL =           0.0000                   WEL =           0.0000     WEL-1                            
                RCHA =    66434985.9469                  RCHA =        4275.0000     RCH-1                            
                 CHD =           0.0000                   CHD =           0.0000     CHD-FROM-IBOUND                  

            TOTAL IN =   100130648.4541              TOTAL IN =      135310.1646

          OUT:                                     OUT:
          ----                                     ----
              STO-SS =    32138818.0732                STO-SS =           0.0000     STORAGE                          
              STO-SY =      960715.3883                STO-SY =           0.0000     STORAGE                          
                 WEL =     9450703.5968                   WEL =       40000.0000     WEL-1                            
                RCHA =           0.0000                  RCHA =           0.0000     RCH-1                            
                 CHD =    57580415.5350                   CHD =       95310.1653     CHD-FROM-IBOUND                  

           TOTAL OUT =   100130652.5934             TOTAL OUT =      135310.1653

            IN - OUT =          -4.1393              IN - OUT =      -7.5465E-04

 PERCENT DISCREPANCY =          -0.00     PERCENT DISCREPANCY =          -0.00




         TIME SUMMARY AT END OF TIME STEP    7 IN STRESS PERIOD   21
                    SECONDS     MINUTES      HOURS       DAYS        YEARS
                    -----------------------------------------------------------
   TIME STEP LENGTH 4.84734E+05  8078.9      134.65      5.6103     1.53603E-02
 STRESS PERIOD TIME 2.09672E+06  34945.      582.42      24.268     6.64410E-02
         TOTAL TIME 5.20359E+07 8.67265E+05  14454.      602.27      1.6489    


end timestep


start timestep kper="21" kstp="8" mode="normal"

 UBDSV1 SAVING     FLOW-JA-FACE ON UNIT   1015 AT TIME STEP      8, STRESS PERIOD     21
 UBDSV06 SAVING              WEL IN MODEL MUMODEL          PACKAGE MUMODEL         CONNECTED TO MODEL MUMODEL          PACKAGE WEL-1            ON UNIT   1015 AT TIME STEP      8, STRESS PERIOD     21
 UBDSV06 SAVING             RCHA IN MODEL MUMODEL          PACKAGE MUMODEL         CONNECTED TO MODEL MUMODEL          PACKAGE RCH-1            ON UNIT   1015 AT TIME STEP      8, STRESS PERIOD     21

 WEL PACKAGE (WEL-1) FLOW RATES   PERIOD     21   STEP        8
 -----------------------------------------------
   NUMBER   CELLID                    RATE      
 -----------------------------------------------
     1      (1,5,5)              -40000.000     
     2      (1,11,5)              0.0000000     
     3      (1,5,5)               0.0000000     
 -----------------------------------------------




 CHD PACKAGE (CHD-FROM-IBOUND) FLOW RATES   PERIOD     21   STEP        8
 -----------------------------------------------
   NUMBER   CELLID                    RATE      
 -----------------------------------------------
     1      (1,1,1)              -5290.2894     
     2      (1,1,2)              -5290.1109     
     3      (1,1,3)              -5288.8496     
     4      (1,1,4)              -5282.7251     
     5      (1,1,5)              -5268.1919     
     6      (1,1,6)              -5282.7271     
     7      (1,1,7)              -5288.8534     
     8      (1,1,8)              -5290.1159     
     9      (1,1,9)              -5290.2948     
     10     (1,21,1)             -5290.3152     
     11     (1,21,2)             -5290.3136     
     12     (1,21,3)             -5290.3118     
     13     (1,21,4)             -5290.3104     
     14     (1,21,5)             -5290.3094     
     15     (1,21,6)             -5290.3090     
     16     (1,21,7)             -5290.3098     
     17     (1,21,8)             -5290.3121     
     18     (1,21,9)             -5290.3146     
 -----------------------------------------------




 HEAD WILL BE SAVED ON UNIT 1016 AT END OF TIME STEP    8, STRESS PERIOD   21


  VOLUME BUDGET FOR ENTIRE MODEL AT END OF TIME STEP    8, STRESS PERIOD  21
  ---------------------------------------------------------------------------------------------------

     CUMULATIVE VOLUME      L**3       RATES FOR THIS TIME STEP      L**3/T          PACKAGE NAME    
     ------------------                 ------------------------                     ----------------

           IN:                                      IN:
           ---                                      ---
              STO-SS =    33551346.8324                STO-SS =      127005.7387     STORAGE                          
              STO-SY =     1025655.2275                STO-SY =        3904.2241     STORAGE                          
                 WEL =           0.0000                   WEL =           0.0000     WEL-1                            
                RCHA =    66463767.0000                  RCHA =        4275.0000     RCH-1                            
                 CHD =           0.0000                   CHD =           0.0000     CHD-FROM-IBOUND                  

            TOTAL IN =   101040769.0598              TOTAL IN =      135184.9627

          OUT:                                     OUT:
          ----                                     ----
              STO-SS =    32138818.0732                STO-SS =           0.0000     STORAGE                          
              STO-SY =      960715.3883                STO-SY =           0.0000     STORAGE                          
                 WEL =     9720000.0000                   WEL =       40000.0000     WEL-1                            
                RCHA =           0.0000                  RCHA =           0.0000     RCH-1                            
                 CHD =    58221239.7460                   CHD =       95184.9640     CHD-FROM-IBOUND                  

           TOTAL OUT =   101040773.2075             TOTAL OUT =      135184.9640

            IN - OUT =          -4.1477              IN - OUT =      -1.2411E-03

 PERCENT DISCREPANCY =          -0.00     PERCENT DISCREPANCY =          -0.00




         TIME SUMMARY AT END OF TIME STEP    8 IN STRESS PERIOD   21
                    SECONDS     MINUTES      HOURS       DAYS        YEARS
                    -----------------------------------------------------------
   TIME STEP LENGTH 5.81680E+05  9694.7      161.58      6.7324     1.84323E-02
 STRESS PERIOD TIME 2.67840E+06  44640.      744.00      31.000     8.48734E-02
         TOTAL TIME 5.26176E+07 8.76960E+05  14616.      609.00      1.6674    


end timestep


start timestep kper="22" kstp="1" mode="normal"


 OUTPUT CONTROL FOR STRESS PERIOD 22 IS REPEATED USING SETTINGS FROM A PREVIOUS STRESS PERIOD.


 STRESS PERIOD 22 IS TRANSIENT


 REUSING WELS FROM LAST STRESS PERIOD

 REUSING RCHS FROM LAST STRESS PERIOD

 REUSING CHDS FROM LAST STRESS PERIOD
 UBDSV1 SAVING     FLOW-JA-FACE ON UNIT   1015 AT TIME STEP      1, STRESS PERIOD     22
 UBDSV06 SAVING              WEL IN MODEL MUMODEL          PACKAGE MUMODEL         CONNECTED TO MODEL MUMODEL          PACKAGE WEL-1            ON UNIT   1015 AT TIME STEP      1, STRESS PERIOD     22
 UBDSV06 SAVING             RCHA IN MODEL MUMODEL          PACKAGE MUMODEL         CONNECTED TO MODEL MUMODEL          PACKAGE RCH-1            ON UNIT   1015 AT TIME STEP      1, STRESS PERIOD     22

 WEL PACKAGE (WEL-1) FLOW RATES   PERIOD     22   STEP        1
 -----------------------------------------------
   NUMBER   CELLID                    RATE      
 -----------------------------------------------
     1      (1,5,5)              -40000.000     
     2      (1,11,5)              0.0000000     
     3      (1,5,5)               0.0000000     
 -----------------------------------------------




 CHD PACKAGE (CHD-FROM-IBOUND) FLOW RATES   PERIOD     22   STEP        1
 -----------------------------------------------
   NUMBER   CELLID                    RATE      
 -----------------------------------------------
     1      (1,1,1)              -5288.4689     
     2      (1,1,2)              -5288.2837     
     3      (1,1,3)              -5286.9823     
     4      (1,1,4)              -5280.7035     
     5      (1,1,5)              -5265.9070     
     6      (1,1,6)              -5280.7055     
     7      (1,1,7)              -5286.9861     
     8      (1,1,8)              -5288.2887     
     9      (1,1,9)              -5288.4743     
     10     (1,21,1)             -5288.4958     
     11     (1,21,2)             -5288.4942     
     12     (1,21,3)             -5288.4924     
     13     (1,21,4)             -5288.4910     
     14     (1,21,5)             -5288.4900     
     15     (1,21,6)             -5288.4896     
     16     (1,21,7)             -5288.4904     
     17     (1,21,8)             -5288.4927     
     18     (1,21,9)             -5288.4952     
 -----------------------------------------------




 HEAD WILL BE SAVED ON UNIT 1016 AT END OF TIME STEP    1, STRESS PERIOD   22


  VOLUME BUDGET FOR ENTIRE MODEL AT END OF TIME STEP    1, STRESS PERIOD  22
  ---------------------------------------------------------------------------------------------------

     CUMULATIVE VOLUME      L**3       RATES FOR THIS TIME STEP      L**3/T          PACKAGE NAME    
     ------------------                 ------------------------                     ----------------

           IN:                                      IN:
           ---                                      ---
              STO-SS =    33782218.2203                STO-SS =      126972.2202     STORAGE                          
              STO-SY =     1032753.8222                STO-SY =        3904.0105     STORAGE                          
                 WEL =           0.0000                   WEL =           0.0000     WEL-1                            
                RCHA =    66471540.1584                  RCHA =        4275.0000     RCH-1                            
                 CHD =           0.0000                   CHD =           0.0000     CHD-FROM-IBOUND                  

            TOTAL IN =   101286512.2009              TOTAL IN =      135151.2308

          OUT:                                     OUT:
          ----                                     ----
              STO-SS =    32138818.0732                STO-SS =           0.0000     STORAGE                          
              STO-SY =      960715.3883                STO-SY =           0.0000     STORAGE                          
                 WEL =     9792731.3069                   WEL =       40000.0000     WEL-1                            
                RCHA =           0.0000                  RCHA =           0.0000     RCH-1                            
                 CHD =    58394251.5805                   CHD =       95151.2310     CHD-FROM-IBOUND                  

           TOTAL OUT =   101286516.3489             TOTAL OUT =      135151.2310

            IN - OUT =          -4.1480              IN - OUT =      -2.0435E-04

 PERCENT DISCREPANCY =          -0.00     PERCENT DISCREPANCY =          -0.00




         TIME SUMMARY AT END OF TIME STEP    1 IN STRESS PERIOD   22
                    SECONDS     MINUTES      HOURS       DAYS        YEARS
                    -----------------------------------------------------------
   TIME STEP LENGTH 1.57100E+05  2618.3      43.639      1.8183     4.97819E-03
 STRESS PERIOD TIME 1.57100E+05  2618.3      43.639      1.8183     4.97819E-03
         TOTAL TIME 5.27747E+07 8.79578E+05  14660.      610.82      1.6723    


end timestep


start timestep kper="22" kstp="2" mode="normal"

 UBDSV1 SAVING     FLOW-JA-FACE ON UNIT   1015 AT TIME STEP      2, STRESS PERIOD     22
 UBDSV06 SAVING              WEL IN MODEL MUMODEL          PACKAGE MUMODEL         CONNECTED TO MODEL MUMODEL          PACKAGE WEL-1            ON UNIT   1015 AT TIME STEP      2, STRESS PERIOD     22
 UBDSV06 SAVING             RCHA IN MODEL MUMODEL          PACKAGE MUMODEL         CONNECTED TO MODEL MUMODEL          PACKAGE RCH-1            ON UNIT   1015 AT TIME STEP      2, STRESS PERIOD     22

 WEL PACKAGE (WEL-1) FLOW RATES   PERIOD     22   STEP        2
 -----------------------------------------------
   NUMBER   CELLID                    RATE      
 -----------------------------------------------
     1      (1,5,5)              -40000.000     
     2      (1,11,5)              0.0000000     
     3      (1,5,5)               0.0000000     
 -----------------------------------------------




 CHD PACKAGE (CHD-FROM-IBOUND) FLOW RATES   PERIOD     22   STEP        2
 -----------------------------------------------
   NUMBER   CELLID                    RATE      
 -----------------------------------------------
     1      (1,1,1)              -5286.2933     
     2      (1,1,2)              -5286.0997     
     3      (1,1,3)              -5284.7490     
     4      (1,1,4)              -5278.2818     
     5      (1,1,5)              -5263.1669     
     6      (1,1,6)              -5278.2838     
     7      (1,1,7)              -5284.7528     
     8      (1,1,8)              -5286.1046     
     9      (1,1,9)              -5286.2986     
     10     (1,21,1)             -5286.3215     
     11     (1,21,2)             -5286.3199     
     12     (1,21,3)             -5286.3181     
     13     (1,21,4)             -5286.3167     
     14     (1,21,5)             -5286.3157     
     15     (1,21,6)             -5286.3153     
     16     (1,21,7)             -5286.3161     
     17     (1,21,8)             -5286.3185     
     18     (1,21,9)             -5286.3209     
 -----------------------------------------------




 HEAD WILL BE SAVED ON UNIT 1016 AT END OF TIME STEP    2, STRESS PERIOD   22


  VOLUME BUDGET FOR ENTIRE MODEL AT END OF TIME STEP    2, STRESS PERIOD  22
  ---------------------------------------------------------------------------------------------------

     CUMULATIVE VOLUME      L**3       RATES FOR THIS TIME STEP      L**3/T          PACKAGE NAME    
     ------------------                 ------------------------                     ----------------

           IN:                                      IN:
           ---                                      ---
              STO-SS =    34059178.8103                STO-SS =      126933.2295     STORAGE                          
              STO-SY =     1041269.1966                STO-SY =        3902.6635     STORAGE                          
                 WEL =           0.0000                   WEL =           0.0000     WEL-1                            
                RCHA =    66480867.9485                  RCHA =        4275.0000     RCH-1                            
                 CHD =           0.0000                   CHD =           0.0000     CHD-FROM-IBOUND                  

            TOTAL IN =   101581315.9555              TOTAL IN =      135110.8930

          OUT:                                     OUT:
          ----                                     ----
              STO-SS =    32138818.0732                STO-SS =           0.0000     STORAGE                          
              STO-SY =      960715.3883                STO-SY =           0.0000     STORAGE                          
                 WEL =     9880008.8752                   WEL =       40000.0000     WEL-1                            
                RCHA =           0.0000                  RCHA =           0.0000     RCH-1                            
                 CHD =    58601777.7676                   CHD =       95110.8933     CHD-FROM-IBOUND                  

           TOTAL OUT =   101581320.1043             TOTAL OUT =      135110.8933

            IN - OUT =          -4.1488              IN - OUT =      -3.4988E-04

 PERCENT DISCREPANCY =          -0.00     PERCENT DISCREPANCY =          -0.00




         TIME SUMMARY AT END OF TIME STEP    2 IN STRESS PERIOD   22
                    SECONDS     MINUTES      HOURS       DAYS        YEARS
                    -----------------------------------------------------------
   TIME STEP LENGTH 1.88520E+05  3142.0      52.367      2.1819     5.97382E-03
 STRESS PERIOD TIME 3.45619E+05  5760.3      96.005      4.0002     1.09520E-02
         TOTAL TIME 5.29632E+07 8.82720E+05  14712.      613.00      1.6783    


end timestep


start timestep kper="22" kstp="3" mode="normal"

 UBDSV1 SAVING     FLOW-JA-FACE ON UNIT   1015 AT TIME STEP      3, STRESS PERIOD     22
 UBDSV06 SAVING              WEL IN MODEL MUMODEL          PACKAGE MUMODEL         CONNECTED TO MODEL MUMODEL          PACKAGE WEL-1            ON UNIT   1015 AT TIME STEP      3, STRESS PERIOD     22
 UBDSV06 SAVING             RCHA IN MODEL MUMODEL          PACKAGE MUMODEL         CONNECTED TO MODEL MUMODEL          PACKAGE RCH-1            ON UNIT   1015 AT TIME STEP      3, STRESS PERIOD     22

 WEL PACKAGE (WEL-1) FLOW RATES   PERIOD     22   STEP        3
 -----------------------------------------------
   NUMBER   CELLID                    RATE      
 -----------------------------------------------
     1      (1,5,5)              -40000.000     
     2      (1,11,5)              0.0000000     
     3      (1,5,5)               0.0000000     
 -----------------------------------------------




 CHD PACKAGE (CHD-FROM-IBOUND) FLOW RATES   PERIOD     22   STEP        3
 -----------------------------------------------
   NUMBER   CELLID                    RATE      
 -----------------------------------------------
     1      (1,1,1)              -5283.6946     
     2      (1,1,2)              -5283.4905     
     3      (1,1,3)              -5282.0788     
     4      (1,1,4)              -5275.3805     
     5      (1,1,5)              -5259.8796     
     6      (1,1,6)              -5275.3825     
     7      (1,1,7)              -5282.0826     
     8      (1,1,8)              -5283.4954     
     9      (1,1,9)              -5283.6999     
     10     (1,21,1)             -5283.7245     
     11     (1,21,2)             -5283.7229     
     12     (1,21,3)             -5283.7211     
     13     (1,21,4)             -5283.7197     
     14     (1,21,5)             -5283.7187     
     15     (1,21,6)             -5283.7183     
     16     (1,21,7)             -5283.7191     
     17     (1,21,8)             -5283.7215     
     18     (1,21,9)             -5283.7239     
 -----------------------------------------------




 HEAD WILL BE SAVED ON UNIT 1016 AT END OF TIME STEP    3, STRESS PERIOD   22


  VOLUME BUDGET FOR ENTIRE MODEL AT END OF TIME STEP    3, STRESS PERIOD  22
  ---------------------------------------------------------------------------------------------------

     CUMULATIVE VOLUME      L**3       RATES FOR THIS TIME STEP      L**3/T          PACKAGE NAME    
     ------------------                 ------------------------                     ----------------

           IN:                                      IN:
           ---                                      ---
              STO-SS =    34391409.4770                STO-SS =      126886.6190     STORAGE                          
              STO-SY =     1051483.4347                STO-SY =        3901.0551     STORAGE                          
                 WEL =           0.0000                   WEL =           0.0000     WEL-1                            
                RCHA =    66492061.2967                  RCHA =        4275.0000     RCH-1                            
                 CHD =           0.0000                   CHD =           0.0000     CHD-FROM-IBOUND                  

            TOTAL IN =   101934954.2084              TOTAL IN =      135062.6741

          OUT:                                     OUT:
          ----                                     ----
              STO-SS =    32138818.0732                STO-SS =           0.0000     STORAGE                          
              STO-SY =      960715.3883                STO-SY =           0.0000     STORAGE                          
                 WEL =     9984741.9571                   WEL =       40000.0000     WEL-1                            
                RCHA =           0.0000                  RCHA =           0.0000     RCH-1                            
                 CHD =    58850682.9388                   CHD =       95062.6742     CHD-FROM-IBOUND                  

           TOTAL OUT =   101934958.3574             TOTAL OUT =      135062.6742

            IN - OUT =          -4.1490              IN - OUT =      -7.4926E-05

 PERCENT DISCREPANCY =          -0.00     PERCENT DISCREPANCY =          -0.00




         TIME SUMMARY AT END OF TIME STEP    3 IN STRESS PERIOD   22
                    SECONDS     MINUTES      HOURS       DAYS        YEARS
                    -----------------------------------------------------------
   TIME STEP LENGTH 2.26223E+05  3770.4      62.840      2.6183     7.16859E-03
 STRESS PERIOD TIME 5.71843E+05  9530.7      158.85      6.6185     1.81206E-02
         TOTAL TIME 5.31894E+07 8.86491E+05  14775.      615.62      1.6855    


end timestep


start timestep kper="22" kstp="4" mode="normal"

 UBDSV1 SAVING     FLOW-JA-FACE ON UNIT   1015 AT TIME STEP      4, STRESS PERIOD     22
 UBDSV06 SAVING              WEL IN MODEL MUMODEL          PACKAGE MUMODEL         CONNECTED TO MODEL MUMODEL          PACKAGE WEL-1            ON UNIT   1015 AT TIME STEP      4, STRESS PERIOD     22
 UBDSV06 SAVING             RCHA IN MODEL MUMODEL          PACKAGE MUMODEL         CONNECTED TO MODEL MUMODEL          PACKAGE RCH-1            ON UNIT   1015 AT TIME STEP      4, STRESS PERIOD     22

 WEL PACKAGE (WEL-1) FLOW RATES   PERIOD     22   STEP        4
 -----------------------------------------------
   NUMBER   CELLID                    RATE      
 -----------------------------------------------
     1      (1,5,5)              -40000.000     
     2      (1,11,5)              0.0000000     
     3      (1,5,5)               0.0000000     
 -----------------------------------------------




 CHD PACKAGE (CHD-FROM-IBOUND) FLOW RATES   PERIOD     22   STEP        4
 -----------------------------------------------
   NUMBER   CELLID                    RATE      
 -----------------------------------------------
     1      (1,1,1)              -5280.5932     
     2      (1,1,2)              -5280.3760     
     3      (1,1,3)              -5278.8883     
     4      (1,1,4)              -5271.9055     
     5      (1,1,5)              -5255.9357     
     6      (1,1,6)              -5271.9075     
     7      (1,1,7)              -5278.8920     
     8      (1,1,8)              -5280.3809     
     9      (1,1,9)              -5280.5985     
     10     (1,21,1)             -5280.6253     
     11     (1,21,2)             -5280.6238     
     12     (1,21,3)             -5280.6220     
     13     (1,21,4)             -5280.6206     
     14     (1,21,5)             -5280.6196     
     15     (1,21,6)             -5280.6192     
     16     (1,21,7)             -5280.6200     
     17     (1,21,8)             -5280.6224     
     18     (1,21,9)             -5280.6248     
 -----------------------------------------------




 HEAD WILL BE SAVED ON UNIT 1016 AT END OF TIME STEP    4, STRESS PERIOD   22


  VOLUME BUDGET FOR ENTIRE MODEL AT END OF TIME STEP    4, STRESS PERIOD  22
  ---------------------------------------------------------------------------------------------------

     CUMULATIVE VOLUME      L**3       RATES FOR THIS TIME STEP      L**3/T          PACKAGE NAME    
     ------------------                 ------------------------                     ----------------

           IN:                                      IN:
           ---                                      ---
              STO-SS =    34789911.3296                STO-SS =      126830.9386     STORAGE                          
              STO-SY =     1063734.4923                STO-SY =        3899.1365     STORAGE                          
                 WEL =           0.0000                   WEL =           0.0000     WEL-1                            
                RCHA =    66505493.3144                  RCHA =        4275.0000     RCH-1                            
                 CHD =           0.0000                   CHD =           0.0000     CHD-FROM-IBOUND                  

            TOTAL IN =   102359139.1363              TOTAL IN =      135005.0752

          OUT:                                     OUT:
          ----                                     ----
              STO-SS =    32138818.0732                STO-SS =           0.0000     STORAGE                          
              STO-SY =      960715.3883                STO-SY =           0.0000     STORAGE                          
                 WEL =    10110421.6554                   WEL =       40000.0000     WEL-1                            
                RCHA =           0.0000                  RCHA =           0.0000     RCH-1                            
                 CHD =    59149188.1688                   CHD =       95005.0753     CHD-FROM-IBOUND                  

           TOTAL OUT =   102359143.2857             TOTAL OUT =      135005.0753

            IN - OUT =          -4.1494              IN - OUT =      -1.3099E-04

 PERCENT DISCREPANCY =          -0.00     PERCENT DISCREPANCY =          -0.00




         TIME SUMMARY AT END OF TIME STEP    4 IN STRESS PERIOD   22
                    SECONDS     MINUTES      HOURS       DAYS        YEARS
                    -----------------------------------------------------------
   TIME STEP LENGTH 2.71468E+05  4524.5      75.408      3.1420     8.60231E-03
 STRESS PERIOD TIME 8.43311E+05  14055.      234.25      9.7605     2.67229E-02
         TOTAL TIME 5.34609E+07 8.91015E+05  14850.      618.76      1.6941    


end timestep


start timestep kper="22" kstp="5" mode="normal"

 UBDSV1 SAVING     FLOW-JA-FACE ON UNIT   1015 AT TIME STEP      5, STRESS PERIOD     22
 UBDSV06 SAVING              WEL IN MODEL MUMODEL          PACKAGE MUMODEL         CONNECTED TO MODEL MUMODEL          PACKAGE WEL-1            ON UNIT   1015 AT TIME STEP      5, STRESS PERIOD     22
 UBDSV06 SAVING             RCHA IN MODEL MUMODEL          PACKAGE MUMODEL         CONNECTED TO MODEL MUMODEL          PACKAGE RCH-1            ON UNIT   1015 AT TIME STEP      5, STRESS PERIOD     22

 WEL PACKAGE (WEL-1) FLOW RATES   PERIOD     22   STEP        5
 -----------------------------------------------
   NUMBER   CELLID                    RATE      
 -----------------------------------------------
     1      (1,5,5)              -40000.000     
     2      (1,11,5)              0.0000000     
     3      (1,5,5)               0.0000000     
 -----------------------------------------------




 CHD PACKAGE (CHD-FROM-IBOUND) FLOW RATES   PERIOD     22   STEP        5
 -----------------------------------------------
   NUMBER   CELLID                    RATE      
 -----------------------------------------------
     1      (1,1,1)              -5276.8960     
     2      (1,1,2)              -5276.6620     
     3      (1,1,3)              -5275.0789     
     4      (1,1,4)              -5267.7444     
     5      (1,1,5)              -5251.2039     
     6      (1,1,6)              -5267.7463     
     7      (1,1,7)              -5275.0826     
     8      (1,1,8)              -5276.6669     
     9      (1,1,9)              -5276.9012     
     10     (1,21,1)             -5276.9308     
     11     (1,21,2)             -5276.9293     
     12     (1,21,3)             -5276.9275     
     13     (1,21,4)             -5276.9261     
     14     (1,21,5)             -5276.9252     
     15     (1,21,6)             -5276.9248     
     16     (1,21,7)             -5276.9256     
     17     (1,21,8)             -5276.9280     
     18     (1,21,9)             -5276.9304     
 -----------------------------------------------




 HEAD WILL BE SAVED ON UNIT 1016 AT END OF TIME STEP    5, STRESS PERIOD   22


  VOLUME BUDGET FOR ENTIRE MODEL AT END OF TIME STEP    5, STRESS PERIOD  22
  ---------------------------------------------------------------------------------------------------

     CUMULATIVE VOLUME      L**3       RATES FOR THIS TIME STEP      L**3/T          PACKAGE NAME    
     ------------------                 ------------------------                     ----------------

           IN:                                      IN:
           ---                                      ---
              STO-SS =    35267862.9745                STO-SS =      126764.4791     STORAGE                          
              STO-SY =     1078427.1426                STO-SY =        3896.8506     STORAGE                          
                 WEL =           0.0000                   WEL =           0.0000     WEL-1                            
                RCHA =    66521611.7357                  RCHA =        4275.0000     RCH-1                            
                 CHD =           0.0000                   CHD =           0.0000     CHD-FROM-IBOUND                  

            TOTAL IN =   102867901.8528              TOTAL IN =      134936.3298

          OUT:                                     OUT:
          ----                                     ----
              STO-SS =    32138818.0732                STO-SS =           0.0000     STORAGE                          
              STO-SY =      960715.3883                STO-SY =           0.0000     STORAGE                          
                 WEL =    10261237.2934                   WEL =       40000.0000     WEL-1                            
                RCHA =           0.0000                  RCHA =           0.0000     RCH-1                            
                 CHD =    59507135.2481                   CHD =       94936.3300     CHD-FROM-IBOUND                  

           TOTAL OUT =   102867906.0030             TOTAL OUT =      134936.3300

            IN - OUT =          -4.1502              IN - OUT =      -2.1992E-04

 PERCENT DISCREPANCY =          -0.00     PERCENT DISCREPANCY =          -0.00




         TIME SUMMARY AT END OF TIME STEP    5 IN STRESS PERIOD   22
                    SECONDS     MINUTES      HOURS       DAYS        YEARS
                    -----------------------------------------------------------
   TIME STEP LENGTH 3.25762E+05  5429.4      90.489      3.7704     1.03228E-02
 STRESS PERIOD TIME 1.16907E+06  19485.      324.74      13.531     3.70457E-02
         TOTAL TIME 5.37867E+07 8.96445E+05  14941.      622.53      1.7044    


end timestep


start timestep kper="22" kstp="6" mode="normal"

 UBDSV1 SAVING     FLOW-JA-FACE ON UNIT   1015 AT TIME STEP      6, STRESS PERIOD     22
 UBDSV06 SAVING              WEL IN MODEL MUMODEL          PACKAGE MUMODEL         CONNECTED TO MODEL MUMODEL          PACKAGE WEL-1            ON UNIT   1015 AT TIME STEP      6, STRESS PERIOD     22
 UBDSV06 SAVING             RCHA IN MODEL MUMODEL          PACKAGE MUMODEL         CONNECTED TO MODEL MUMODEL          PACKAGE RCH-1            ON UNIT   1015 AT TIME STEP      6, STRESS PERIOD     22

 WEL PACKAGE (WEL-1) FLOW RATES   PERIOD     22   STEP        6
 -----------------------------------------------
   NUMBER   CELLID                    RATE      
 -----------------------------------------------
     1      (1,5,5)              -40000.000     
     2      (1,11,5)              0.0000000     
     3      (1,5,5)               0.0000000     
 -----------------------------------------------




 CHD PACKAGE (CHD-FROM-IBOUND) FLOW RATES   PERIOD     22   STEP        6
 -----------------------------------------------
   NUMBER   CELLID                    RATE      
 -----------------------------------------------
     1      (1,1,1)              -5272.4937     
     2      (1,1,2)              -5272.2382     
     3      (1,1,3)              -5270.5346     
     4      (1,1,4)              -5262.7629     
     5      (1,1,5)              -5245.5267     
     6      (1,1,6)              -5262.7648     
     7      (1,1,7)              -5270.5382     
     8      (1,1,8)              -5272.2430     
     9      (1,1,9)              -5272.4989     
     10     (1,21,1)             -5272.5322     
     11     (1,21,2)             -5272.5308     
     12     (1,21,3)             -5272.5290     
     13     (1,21,4)             -5272.5276     
     14     (1,21,5)             -5272.5266     
     15     (1,21,6)             -5272.5263     
     16     (1,21,7)             -5272.5271     
     17     (1,21,8)             -5272.5294     
     18     (1,21,9)             -5272.5318     
 -----------------------------------------------




 HEAD WILL BE SAVED ON UNIT 1016 AT END OF TIME STEP    6, STRESS PERIOD   22


  VOLUME BUDGET FOR ENTIRE MODEL AT END OF TIME STEP    6, STRESS PERIOD  22
  ---------------------------------------------------------------------------------------------------

     CUMULATIVE VOLUME      L**3       RATES FOR THIS TIME STEP      L**3/T          PACKAGE NAME    
     ------------------                 ------------------------                     ----------------

           IN:                                      IN:
           ---                                      ---
              STO-SS =    35841046.3913                STO-SS =      126685.2307     STORAGE                          
              STO-SY =     1096046.0172                STO-SY =        3894.1308     STORAGE                          
                 WEL =           0.0000                   WEL =           0.0000     WEL-1                            
                RCHA =    66540953.8413                  RCHA =        4275.0000     RCH-1                            
                 CHD =           0.0000                   CHD =           0.0000     CHD-FROM-IBOUND                  

            TOTAL IN =   103478046.2498              TOTAL IN =      134854.3615

          OUT:                                     OUT:
          ----                                     ----
              STO-SS =    32138818.0732                STO-SS =           0.0000     STORAGE                          
              STO-SY =      960715.3883                STO-SY =           0.0000     STORAGE                          
                 WEL =    10442216.0589                   WEL =       40000.0000     WEL-1                            
                RCHA =           0.0000                  RCHA =           0.0000     RCH-1                            
                 CHD =    59936300.8812                   CHD =       94854.3619     CHD-FROM-IBOUND                  

           TOTAL OUT =   103478050.4017             TOTAL OUT =      134854.3619

            IN - OUT =          -4.1519              IN - OUT =      -3.7183E-04

 PERCENT DISCREPANCY =          -0.00     PERCENT DISCREPANCY =          -0.00




         TIME SUMMARY AT END OF TIME STEP    6 IN STRESS PERIOD   22
                    SECONDS     MINUTES      HOURS       DAYS        YEARS
                    -----------------------------------------------------------
   TIME STEP LENGTH 3.90914E+05  6515.2      108.59      4.5245     1.23873E-02
 STRESS PERIOD TIME 1.55999E+06  26000.      433.33      18.055     4.94330E-02
         TOTAL TIME 5.41776E+07 9.02960E+05  15049.      627.06      1.7168    


end timestep


start timestep kper="22" kstp="7" mode="normal"

 UBDSV1 SAVING     FLOW-JA-FACE ON UNIT   1015 AT TIME STEP      7, STRESS PERIOD     22
 UBDSV06 SAVING              WEL IN MODEL MUMODEL          PACKAGE MUMODEL         CONNECTED TO MODEL MUMODEL          PACKAGE WEL-1            ON UNIT   1015 AT TIME STEP      7, STRESS PERIOD     22
 UBDSV06 SAVING             RCHA IN MODEL MUMODEL          PACKAGE MUMODEL         CONNECTED TO MODEL MUMODEL          PACKAGE RCH-1            ON UNIT   1015 AT TIME STEP      7, STRESS PERIOD     22

 WEL PACKAGE (WEL-1) FLOW RATES   PERIOD     22   STEP        7
 -----------------------------------------------
   NUMBER   CELLID                    RATE      
 -----------------------------------------------
     1      (1,5,5)              -40000.000     
     2      (1,11,5)              0.0000000     
     3      (1,5,5)               0.0000000     
 -----------------------------------------------




 CHD PACKAGE (CHD-FROM-IBOUND) FLOW RATES   PERIOD     22   STEP        7
 -----------------------------------------------
   NUMBER   CELLID                    RATE      
 -----------------------------------------------
     1      (1,1,1)              -5267.2596     
     2      (1,1,2)              -5266.9761     
     3      (1,1,3)              -5265.1188     
     4      (1,1,4)              -5256.8008     
     5      (1,1,5)              -5238.7143     
     6      (1,1,6)              -5256.8027     
     7      (1,1,7)              -5265.1224     
     8      (1,1,8)              -5266.9809     
     9      (1,1,9)              -5267.2648     
     10     (1,21,1)             -5267.3030     
     11     (1,21,2)             -5267.3016     
     12     (1,21,3)             -5267.2998     
     13     (1,21,4)             -5267.2984     
     14     (1,21,5)             -5267.2975     
     15     (1,21,6)             -5267.2971     
     16     (1,21,7)             -5267.2980     
     17     (1,21,8)             -5267.3003     
     18     (1,21,9)             -5267.3027     
 -----------------------------------------------




 HEAD WILL BE SAVED ON UNIT 1016 AT END OF TIME STEP    7, STRESS PERIOD   22


  VOLUME BUDGET FOR ENTIRE MODEL AT END OF TIME STEP    7, STRESS PERIOD  22
  ---------------------------------------------------------------------------------------------------

     CUMULATIVE VOLUME      L**3       RATES FOR THIS TIME STEP      L**3/T          PACKAGE NAME    
     ------------------                 ------------------------                     ----------------

           IN:                                      IN:
           ---                                      ---
              STO-SS =    36528354.0004                STO-SS =      126590.8383     STORAGE                          
              STO-SY =     1117171.1256                STO-SY =        3890.9000     STORAGE                          
                 WEL =           0.0000                   WEL =           0.0000     WEL-1                            
                RCHA =    66564164.3680                  RCHA =        4275.0000     RCH-1                            
                 CHD =           0.0000                   CHD =           0.0000     CHD-FROM-IBOUND                  

            TOTAL IN =   104209689.4940              TOTAL IN =      134756.7383

          OUT:                                     OUT:
          ----                                     ----
              STO-SS =    32138818.0732                STO-SS =           0.0000     STORAGE                          
              STO-SY =      960715.3883                STO-SY =           0.0000     STORAGE                          
                 WEL =    10659390.5776                   WEL =       40000.0000     WEL-1                            
                RCHA =           0.0000                  RCHA =           0.0000     RCH-1                            
                 CHD =    60450769.6101                   CHD =       94756.7389     CHD-FROM-IBOUND                  

           TOTAL OUT =   104209693.6492             TOTAL OUT =      134756.7389

            IN - OUT =          -4.1553              IN - OUT =      -6.1494E-04

 PERCENT DISCREPANCY =          -0.00     PERCENT DISCREPANCY =          -0.00




         TIME SUMMARY AT END OF TIME STEP    7 IN STRESS PERIOD   22
                    SECONDS     MINUTES      HOURS       DAYS        YEARS
                    -----------------------------------------------------------
   TIME STEP LENGTH 4.69097E+05  7818.3      130.30      5.4294     1.48648E-02
 STRESS PERIOD TIME 2.02908E+06  33818.      563.63      23.485     6.42978E-02
         TOTAL TIME 5.46467E+07 9.10778E+05  15180.      632.48      1.7316    


end timestep


start timestep kper="22" kstp="8" mode="normal"

 UBDSV1 SAVING     FLOW-JA-FACE ON UNIT   1015 AT TIME STEP      8, STRESS PERIOD     22
 UBDSV06 SAVING              WEL IN MODEL MUMODEL          PACKAGE MUMODEL         CONNECTED TO MODEL MUMODEL          PACKAGE WEL-1            ON UNIT   1015 AT TIME STEP      8, STRESS PERIOD     22
 UBDSV06 SAVING             RCHA IN MODEL MUMODEL          PACKAGE MUMODEL         CONNECTED TO MODEL MUMODEL          PACKAGE RCH-1            ON UNIT   1015 AT TIME STEP      8, STRESS PERIOD     22

 WEL PACKAGE (WEL-1) FLOW RATES   PERIOD     22   STEP        8
 -----------------------------------------------
   NUMBER   CELLID                    RATE      
 -----------------------------------------------
     1      (1,5,5)              -40000.000     
     2      (1,11,5)              0.0000000     
     3      (1,5,5)               0.0000000     
 -----------------------------------------------




 CHD PACKAGE (CHD-FROM-IBOUND) FLOW RATES   PERIOD     22   STEP        8
 -----------------------------------------------
   NUMBER   CELLID                    RATE      
 -----------------------------------------------
     1      (1,1,1)              -5261.0470     
     2      (1,1,2)              -5260.7267     
     3      (1,1,3)              -5258.6715     
     4      (1,1,4)              -5249.6665     
     5      (1,1,5)              -5230.5387     
     6      (1,1,6)              -5249.6684     
     7      (1,1,7)              -5258.6751     
     8      (1,1,8)              -5260.7315     
     9      (1,1,9)              -5261.0521     
     10     (1,21,1)             -5261.0971     
     11     (1,21,2)             -5261.0956     
     12     (1,21,3)             -5261.0939     
     13     (1,21,4)             -5261.0925     
     14     (1,21,5)             -5261.0916     
     15     (1,21,6)             -5261.0913     
     16     (1,21,7)             -5261.0921     
     17     (1,21,8)             -5261.0944     
     18     (1,21,9)             -5261.0968     
 -----------------------------------------------




 HEAD WILL BE SAVED ON UNIT 1016 AT END OF TIME STEP    8, STRESS PERIOD   22


  VOLUME BUDGET FOR ENTIRE MODEL AT END OF TIME STEP    8, STRESS PERIOD  22
  ---------------------------------------------------------------------------------------------------

     CUMULATIVE VOLUME      L**3       RATES FOR THIS TIME STEP      L**3/T          PACKAGE NAME    
     ------------------                 ------------------------                     ----------------

           IN:                                      IN:
           ---                                      ---
              STO-SS =    37352391.5613                STO-SS =      126478.5522     STORAGE                          
              STO-SY =     1142496.2996                STO-SY =        3887.0696     STORAGE                          
                 WEL =           0.0000                   WEL =           0.0000     WEL-1                            
                RCHA =    66592017.0000                  RCHA =        4275.0000     RCH-1                            
                 CHD =           0.0000                   CHD =           0.0000     CHD-FROM-IBOUND                  

            TOTAL IN =   105086904.8609              TOTAL IN =      134640.6218

          OUT:                                     OUT:
          ----                                     ----
              STO-SS =    32138818.0732                STO-SS =           0.0000     STORAGE                          
              STO-SY =      960715.3883                STO-SY =           0.0000     STORAGE                          
                 WEL =    10920000.0000                   WEL =       40000.0000     WEL-1                            
                RCHA =           0.0000                  RCHA =           0.0000     RCH-1                            
                 CHD =    61067375.5612                   CHD =       94640.6228     CHD-FROM-IBOUND                  

           TOTAL OUT =   105086909.0227             TOTAL OUT =      134640.6228

            IN - OUT =          -4.1619              IN - OUT =      -1.0160E-03

 PERCENT DISCREPANCY =          -0.00     PERCENT DISCREPANCY =          -0.00




         TIME SUMMARY AT END OF TIME STEP    8 IN STRESS PERIOD   22
                    SECONDS     MINUTES      HOURS       DAYS        YEARS
                    -----------------------------------------------------------
   TIME STEP LENGTH 5.62916E+05  9381.9      156.37      6.5152     1.78377E-02
 STRESS PERIOD TIME 2.59200E+06  43200.      720.00      30.000     8.21355E-02
         TOTAL TIME 5.52096E+07 9.20160E+05  15336.      639.00      1.7495    


end timestep


start timestep kper="23" kstp="1" mode="normal"


 OUTPUT CONTROL FOR STRESS PERIOD 23 IS REPEATED USING SETTINGS FROM A PREVIOUS STRESS PERIOD.


 STRESS PERIOD 23 IS TRANSIENT


 REUSING WELS FROM LAST STRESS PERIOD

 REUSING RCHS FROM LAST STRESS PERIOD

 REUSING CHDS FROM LAST STRESS PERIOD
 UBDSV1 SAVING     FLOW-JA-FACE ON UNIT   1015 AT TIME STEP      1, STRESS PERIOD     23
 UBDSV06 SAVING              WEL IN MODEL MUMODEL          PACKAGE MUMODEL         CONNECTED TO MODEL MUMODEL          PACKAGE WEL-1            ON UNIT   1015 AT TIME STEP      1, STRESS PERIOD     23
 UBDSV06 SAVING             RCHA IN MODEL MUMODEL          PACKAGE MUMODEL         CONNECTED TO MODEL MUMODEL          PACKAGE RCH-1            ON UNIT   1015 AT TIME STEP      1, STRESS PERIOD     23

 WEL PACKAGE (WEL-1) FLOW RATES   PERIOD     23   STEP        1
 -----------------------------------------------
   NUMBER   CELLID                    RATE      
 -----------------------------------------------
     1      (1,5,5)              -40000.000     
     2      (1,11,5)              0.0000000     
     3      (1,5,5)               0.0000000     
 -----------------------------------------------




 CHD PACKAGE (CHD-FROM-IBOUND) FLOW RATES   PERIOD     23   STEP        1
 -----------------------------------------------
   NUMBER   CELLID                    RATE      
 -----------------------------------------------
     1      (1,1,1)              -5259.2606     
     2      (1,1,2)              -5258.9294     
     3      (1,1,3)              -5256.8159     
     4      (1,1,4)              -5247.6099     
     5      (1,1,5)              -5228.1797     
     6      (1,1,6)              -5247.6118     
     7      (1,1,7)              -5256.8195     
     8      (1,1,8)              -5258.9341     
     9      (1,1,9)              -5259.2657     
     10     (1,21,1)             -5259.3126     
     11     (1,21,2)             -5259.3112     
     12     (1,21,3)             -5259.3094     
     13     (1,21,4)             -5259.3081     
     14     (1,21,5)             -5259.3072     
     15     (1,21,6)             -5259.3068     
     16     (1,21,7)             -5259.3077     
     17     (1,21,8)             -5259.3100     
     18     (1,21,9)             -5259.3123     
 -----------------------------------------------




 HEAD WILL BE SAVED ON UNIT 1016 AT END OF TIME STEP    1, STRESS PERIOD   23


  VOLUME BUDGET FOR ENTIRE MODEL AT END OF TIME STEP    1, STRESS PERIOD  23
  ---------------------------------------------------------------------------------------------------

     CUMULATIVE VOLUME      L**3       RATES FOR THIS TIME STEP      L**3/T          PACKAGE NAME    
     ------------------                 ------------------------                     ----------------

           IN:                                      IN:
           ---                                      ---
              STO-SS =    37589968.9427                STO-SS =      126445.4633     STORAGE                          
              STO-SY =     1149799.0804                STO-SY =        3886.7484     STORAGE                          
                 WEL =           0.0000                   WEL =           0.0000     WEL-1                            
                RCHA =    66600049.2637                  RCHA =        4275.0000     RCH-1                            
                 CHD =           0.0000                   CHD =           0.0000     CHD-FROM-IBOUND                  

            TOTAL IN =   105339817.2868              TOTAL IN =      134607.2117

          OUT:                                     OUT:
          ----                                     ----
              STO-SS =    32138818.0732                STO-SS =           0.0000     STORAGE                          
              STO-SY =      960715.3883                STO-SY =           0.0000     STORAGE                          
                 WEL =    10995155.6838                   WEL =       40000.0000     WEL-1                            
                RCHA =           0.0000                  RCHA =           0.0000     RCH-1                            
                 CHD =    61245132.3037                   CHD =       94607.2119     CHD-FROM-IBOUND                  

           TOTAL OUT =   105339821.4490             TOTAL OUT =      134607.2119

            IN - OUT =          -4.1623              IN - OUT =      -2.0304E-04

 PERCENT DISCREPANCY =          -0.00     PERCENT DISCREPANCY =          -0.00




         TIME SUMMARY AT END OF TIME STEP    1 IN STRESS PERIOD   23
                    SECONDS     MINUTES      HOURS       DAYS        YEARS
                    -----------------------------------------------------------
   TIME STEP LENGTH 1.62336E+05  2705.6      45.093      1.8789     5.14413E-03
 STRESS PERIOD TIME 1.62336E+05  2705.6      45.093      1.8789     5.14413E-03
         TOTAL TIME 5.53719E+07 9.22866E+05  15381.      640.88      1.7546    


end timestep


start timestep kper="23" kstp="2" mode="normal"

 UBDSV1 SAVING     FLOW-JA-FACE ON UNIT   1015 AT TIME STEP      2, STRESS PERIOD     23
 UBDSV06 SAVING              WEL IN MODEL MUMODEL          PACKAGE MUMODEL         CONNECTED TO MODEL MUMODEL          PACKAGE WEL-1            ON UNIT   1015 AT TIME STEP      2, STRESS PERIOD     23
 UBDSV06 SAVING             RCHA IN MODEL MUMODEL          PACKAGE MUMODEL         CONNECTED TO MODEL MUMODEL          PACKAGE RCH-1            ON UNIT   1015 AT TIME STEP      2, STRESS PERIOD     23

 WEL PACKAGE (WEL-1) FLOW RATES   PERIOD     23   STEP        2
 -----------------------------------------------
   NUMBER   CELLID                    RATE      
 -----------------------------------------------
     1      (1,5,5)              -40000.000     
     2      (1,11,5)              0.0000000     
     3      (1,5,5)               0.0000000     
 -----------------------------------------------




 CHD PACKAGE (CHD-FROM-IBOUND) FLOW RATES   PERIOD     23   STEP        2
 -----------------------------------------------
   NUMBER   CELLID                    RATE      
 -----------------------------------------------
     1      (1,1,1)              -5257.1254     
     2      (1,1,2)              -5256.7807     
     3      (1,1,3)              -5254.5957     
     4      (1,1,4)              -5245.1450     
     5      (1,1,5)              -5225.3500     
     6      (1,1,6)              -5245.1469     
     7      (1,1,7)              -5254.5993     
     8      (1,1,8)              -5256.7854     
     9      (1,1,9)              -5257.1305     
     10     (1,21,1)             -5257.1799     
     11     (1,21,2)             -5257.1785     
     12     (1,21,3)             -5257.1768     
     13     (1,21,4)             -5257.1754     
     14     (1,21,5)             -5257.1745     
     15     (1,21,6)             -5257.1742     
     16     (1,21,7)             -5257.1750     
     17     (1,21,8)             -5257.1773     
     18     (1,21,9)             -5257.1796     
 -----------------------------------------------




 HEAD WILL BE SAVED ON UNIT 1016 AT END OF TIME STEP    2, STRESS PERIOD   23


  VOLUME BUDGET FOR ENTIRE MODEL AT END OF TIME STEP    2, STRESS PERIOD  23
  ---------------------------------------------------------------------------------------------------

     CUMULATIVE VOLUME      L**3       RATES FOR THIS TIME STEP      L**3/T          PACKAGE NAME    
     ------------------                 ------------------------                     ----------------

           IN:                                      IN:
           ---                                      ---
              STO-SS =    37874974.6868                STO-SS =      126406.8263     STORAGE                          
              STO-SY =     1158559.4304                STO-SY =        3885.4236     STORAGE                          
                 WEL =           0.0000                   WEL =           0.0000     WEL-1                            
                RCHA =    66609687.9802                  RCHA =        4275.0000     RCH-1                            
                 CHD =           0.0000                   CHD =           0.0000     CHD-FROM-IBOUND                  

            TOTAL IN =   105643222.0973              TOTAL IN =      134567.2500

          OUT:                                     OUT:
          ----                                     ----
              STO-SS =    32138818.0732                STO-SS =           0.0000     STORAGE                          
              STO-SY =      960715.3883                STO-SY =           0.0000     STORAGE                          
                 WEL =    11085342.5043                   WEL =       40000.0000     WEL-1                            
                RCHA =           0.0000                  RCHA =           0.0000     RCH-1                            
                 CHD =    61458350.2945                   CHD =       94567.2503     CHD-FROM-IBOUND                  

           TOTAL OUT =   105643226.2604             TOTAL OUT =      134567.2503

            IN - OUT =          -4.1630              IN - OUT =      -3.5302E-04

 PERCENT DISCREPANCY =          -0.00     PERCENT DISCREPANCY =          -0.00




         TIME SUMMARY AT END OF TIME STEP    2 IN STRESS PERIOD   23
                    SECONDS     MINUTES      HOURS       DAYS        YEARS
                    -----------------------------------------------------------
   TIME STEP LENGTH 1.94804E+05  3246.7      54.112      2.2547     6.17295E-03
 STRESS PERIOD TIME 3.57140E+05  5952.3      99.206      4.1336     1.13171E-02
         TOTAL TIME 5.55667E+07 9.26112E+05  15435.      643.13      1.7608    


end timestep


start timestep kper="23" kstp="3" mode="normal"

 UBDSV1 SAVING     FLOW-JA-FACE ON UNIT   1015 AT TIME STEP      3, STRESS PERIOD     23
 UBDSV06 SAVING              WEL IN MODEL MUMODEL          PACKAGE MUMODEL         CONNECTED TO MODEL MUMODEL          PACKAGE WEL-1            ON UNIT   1015 AT TIME STEP      3, STRESS PERIOD     23
 UBDSV06 SAVING             RCHA IN MODEL MUMODEL          PACKAGE MUMODEL         CONNECTED TO MODEL MUMODEL          PACKAGE RCH-1            ON UNIT   1015 AT TIME STEP      3, STRESS PERIOD     23

 WEL PACKAGE (WEL-1) FLOW RATES   PERIOD     23   STEP        3
 -----------------------------------------------
   NUMBER   CELLID                    RATE      
 -----------------------------------------------
     1      (1,5,5)              -40000.000     
     2      (1,11,5)              0.0000000     
     3      (1,5,5)               0.0000000     
 -----------------------------------------------




 CHD PACKAGE (CHD-FROM-IBOUND) FLOW RATES   PERIOD     23   STEP        3
 -----------------------------------------------
   NUMBER   CELLID                    RATE      
 -----------------------------------------------
     1      (1,1,1)              -5254.5747     
     2      (1,1,2)              -5254.2133     
     3      (1,1,3)              -5251.9401     
     4      (1,1,4)              -5242.1903     
     5      (1,1,5)              -5221.9539     
     6      (1,1,6)              -5242.1922     
     7      (1,1,7)              -5251.9436     
     8      (1,1,8)              -5254.2179     
     9      (1,1,9)              -5254.5798     
     10     (1,21,1)             -5254.6323     
     11     (1,21,2)             -5254.6309     
     12     (1,21,3)             -5254.6292     
     13     (1,21,4)             -5254.6278     
     14     (1,21,5)             -5254.6269     
     15     (1,21,6)             -5254.6266     
     16     (1,21,7)             -5254.6275     
     17     (1,21,8)             -5254.6297     
     18     (1,21,9)             -5254.6320     
 -----------------------------------------------




 HEAD WILL BE SAVED ON UNIT 1016 AT END OF TIME STEP    3, STRESS PERIOD   23


  VOLUME BUDGET FOR ENTIRE MODEL AT END OF TIME STEP    3, STRESS PERIOD  23
  ---------------------------------------------------------------------------------------------------

     CUMULATIVE VOLUME      L**3       RATES FOR THIS TIME STEP      L**3/T          PACKAGE NAME    
     ------------------                 ------------------------                     ----------------

           IN:                                      IN:
           ---                                      ---
              STO-SS =    38216856.5812                STO-SS =      126360.6265     STORAGE                          
              STO-SY =     1169067.5715                STO-SY =        3883.8421     STORAGE                          
                 WEL =           0.0000                   WEL =           0.0000     WEL-1                            
                RCHA =    66621254.4399                  RCHA =        4275.0000     RCH-1                            
                 CHD =           0.0000                   CHD =           0.0000     CHD-FROM-IBOUND                  

            TOTAL IN =   106007178.5925              TOTAL IN =      134519.4686

          OUT:                                     OUT:
          ----                                     ----
              STO-SS =    32138818.0732                STO-SS =           0.0000     STORAGE                          
              STO-SY =      960715.3883                STO-SY =           0.0000     STORAGE                          
                 WEL =    11193566.6890                   WEL =       40000.0000     WEL-1                            
                RCHA =           0.0000                  RCHA =           0.0000     RCH-1                            
                 CHD =    61714082.6052                   CHD =       94519.4687     CHD-FROM-IBOUND                  

           TOTAL OUT =   106007182.7558             TOTAL OUT =      134519.4687

            IN - OUT =          -4.1633              IN - OUT =      -7.9561E-05

 PERCENT DISCREPANCY =          -0.00     PERCENT DISCREPANCY =          -0.00




         TIME SUMMARY AT END OF TIME STEP    3 IN STRESS PERIOD   23
                    SECONDS     MINUTES      HOURS       DAYS        YEARS
                    -----------------------------------------------------------
   TIME STEP LENGTH 2.33764E+05  3896.1      64.935      2.7056     7.40754E-03
 STRESS PERIOD TIME 5.90904E+05  9848.4      164.14      6.8392     1.87246E-02
         TOTAL TIME 5.58005E+07 9.30008E+05  15500.      645.84      1.7682    


end timestep


start timestep kper="23" kstp="4" mode="normal"

 UBDSV1 SAVING     FLOW-JA-FACE ON UNIT   1015 AT TIME STEP      4, STRESS PERIOD     23
 UBDSV06 SAVING              WEL IN MODEL MUMODEL          PACKAGE MUMODEL         CONNECTED TO MODEL MUMODEL          PACKAGE WEL-1            ON UNIT   1015 AT TIME STEP      4, STRESS PERIOD     23
 UBDSV06 SAVING             RCHA IN MODEL MUMODEL          PACKAGE MUMODEL         CONNECTED TO MODEL MUMODEL          PACKAGE RCH-1            ON UNIT   1015 AT TIME STEP      4, STRESS PERIOD     23

 WEL PACKAGE (WEL-1) FLOW RATES   PERIOD     23   STEP        4
 -----------------------------------------------
   NUMBER   CELLID                    RATE      
 -----------------------------------------------
     1      (1,5,5)              -40000.000     
     2      (1,11,5)              0.0000000     
     3      (1,5,5)               0.0000000     
 -----------------------------------------------




 CHD PACKAGE (CHD-FROM-IBOUND) FLOW RATES   PERIOD     23   STEP        4
 -----------------------------------------------
   NUMBER   CELLID                    RATE      
 -----------------------------------------------
     1      (1,1,1)              -5251.5302     
     2      (1,1,2)              -5251.1477     
     3      (1,1,3)              -5248.7652     
     4      (1,1,4)              -5238.6487     
     5      (1,1,5)              -5217.8779     
     6      (1,1,6)              -5238.6506     
     7      (1,1,7)              -5248.7687     
     8      (1,1,8)              -5251.1524     
     9      (1,1,9)              -5251.5352     
     10     (1,21,1)             -5251.5917     
     11     (1,21,2)             -5251.5903     
     12     (1,21,3)             -5251.5886     
     13     (1,21,4)             -5251.5873     
     14     (1,21,5)             -5251.5864     
     15     (1,21,6)             -5251.5861     
     16     (1,21,7)             -5251.5870     
     17     (1,21,8)             -5251.5892     
     18     (1,21,9)             -5251.5915     
 -----------------------------------------------




 HEAD WILL BE SAVED ON UNIT 1016 AT END OF TIME STEP    4, STRESS PERIOD   23


  VOLUME BUDGET FOR ENTIRE MODEL AT END OF TIME STEP    4, STRESS PERIOD  23
  ---------------------------------------------------------------------------------------------------

     CUMULATIVE VOLUME      L**3       RATES FOR THIS TIME STEP      L**3/T          PACKAGE NAME    
     ------------------                 ------------------------                     ----------------

           IN:                                      IN:
           ---                                      ---
              STO-SS =    38626935.6106                STO-SS =      126305.4189     STORAGE                          
              STO-SY =     1181671.2166                STO-SY =        3881.9558     STORAGE                          
                 WEL =           0.0000                   WEL =           0.0000     WEL-1                            
                RCHA =    66635134.1916                  RCHA =        4275.0000     RCH-1                            
                 CHD =           0.0000                   CHD =           0.0000     CHD-FROM-IBOUND                  

            TOTAL IN =   106443741.0188              TOTAL IN =      134462.3748

          OUT:                                     OUT:
          ----                                     ----
              STO-SS =    32138818.0732                STO-SS =           0.0000     STORAGE                          
              STO-SY =      960715.3883                STO-SY =           0.0000     STORAGE                          
                 WEL =    11323435.7106                   WEL =       40000.0000     WEL-1                            
                RCHA =           0.0000                  RCHA =           0.0000     RCH-1                            
                 CHD =    62020776.0103                   CHD =       94462.3749     CHD-FROM-IBOUND                  

           TOTAL OUT =   106443745.1824             TOTAL OUT =      134462.3749

            IN - OUT =          -4.1637              IN - OUT =      -1.2991E-04

 PERCENT DISCREPANCY =          -0.00     PERCENT DISCREPANCY =          -0.00




         TIME SUMMARY AT END OF TIME STEP    4 IN STRESS PERIOD   23
                    SECONDS     MINUTES      HOURS       DAYS        YEARS
                    -----------------------------------------------------------
   TIME STEP LENGTH 2.80517E+05  4675.3      77.921      3.2467     8.88905E-03
 STRESS PERIOD TIME 8.71421E+05  14524.      242.06      10.086     2.76137E-02
         TOTAL TIME 5.60810E+07 9.34684E+05  15578.      649.09      1.7771    


end timestep


start timestep kper="23" kstp="5" mode="normal"

 UBDSV1 SAVING     FLOW-JA-FACE ON UNIT   1015 AT TIME STEP      5, STRESS PERIOD     23
 UBDSV06 SAVING              WEL IN MODEL MUMODEL          PACKAGE MUMODEL         CONNECTED TO MODEL MUMODEL          PACKAGE WEL-1            ON UNIT   1015 AT TIME STEP      5, STRESS PERIOD     23
 UBDSV06 SAVING             RCHA IN MODEL MUMODEL          PACKAGE MUMODEL         CONNECTED TO MODEL MUMODEL          PACKAGE RCH-1            ON UNIT   1015 AT TIME STEP      5, STRESS PERIOD     23

 WEL PACKAGE (WEL-1) FLOW RATES   PERIOD     23   STEP        5
 -----------------------------------------------
   NUMBER   CELLID                    RATE      
 -----------------------------------------------
     1      (1,5,5)              -40000.000     
     2      (1,11,5)              0.0000000     
     3      (1,5,5)               0.0000000     
 -----------------------------------------------




 CHD PACKAGE (CHD-FROM-IBOUND) FLOW RATES   PERIOD     23   STEP        5
 -----------------------------------------------
   NUMBER   CELLID                    RATE      
 -----------------------------------------------
     1      (1,1,1)              -5247.9000     
     2      (1,1,2)              -5247.4910     
     3      (1,1,3)              -5244.9721     
     4      (1,1,4)              -5234.4043     
     5      (1,1,5)              -5212.9854     
     6      (1,1,6)              -5234.4062     
     7      (1,1,7)              -5244.9757     
     8      (1,1,8)              -5247.4956     
     9      (1,1,9)              -5247.9050     
     10     (1,21,1)             -5247.9666     
     11     (1,21,2)             -5247.9652     
     12     (1,21,3)             -5247.9635     
     13     (1,21,4)             -5247.9622     
     14     (1,21,5)             -5247.9613     
     15     (1,21,6)             -5247.9610     
     16     (1,21,7)             -5247.9619     
     17     (1,21,8)             -5247.9641     
     18     (1,21,9)             -5247.9664     
 -----------------------------------------------




 HEAD WILL BE SAVED ON UNIT 1016 AT END OF TIME STEP    5, STRESS PERIOD   23


  VOLUME BUDGET FOR ENTIRE MODEL AT END OF TIME STEP    5, STRESS PERIOD  23
  ---------------------------------------------------------------------------------------------------

     CUMULATIVE VOLUME      L**3       RATES FOR THIS TIME STEP      L**3/T          PACKAGE NAME    
     ------------------                 ------------------------                     ----------------

           IN:                                      IN:
           ---                                      ---
              STO-SS =    39118773.6157                STO-SS =      126239.4986     STORAGE                          
              STO-SY =     1196786.8362                STO-SY =        3879.7088     STORAGE                          
                 WEL =           0.0000                   WEL =           0.0000     WEL-1                            
                RCHA =    66651789.8936                  RCHA =        4275.0000     RCH-1                            
                 CHD =           0.0000                   CHD =           0.0000     CHD-FROM-IBOUND                  

            TOTAL IN =   106967350.3455              TOTAL IN =      134394.2074

          OUT:                                     OUT:
          ----                                     ----
              STO-SS =    32138818.0732                STO-SS =           0.0000     STORAGE                          
              STO-SY =      960715.3883                STO-SY =           0.0000     STORAGE                          
                 WEL =    11479278.5365                   WEL =       40000.0000     WEL-1                            
                RCHA =           0.0000                  RCHA =           0.0000     RCH-1                            
                 CHD =    62388542.5120                   CHD =       94394.2076     CHD-FROM-IBOUND                  

           TOTAL OUT =   106967354.5100             TOTAL OUT =      134394.2076

            IN - OUT =          -4.1645              IN - OUT =      -2.1940E-04

 PERCENT DISCREPANCY =          -0.00     PERCENT DISCREPANCY =          -0.00




         TIME SUMMARY AT END OF TIME STEP    5 IN STRESS PERIOD   23
                    SECONDS     MINUTES      HOURS       DAYS        YEARS
                    -----------------------------------------------------------
   TIME STEP LENGTH 3.36621E+05  5610.3      93.506      3.8961     1.06669E-02
 STRESS PERIOD TIME 1.20804E+06  20134.      335.57      13.982     3.82805E-02
         TOTAL TIME 5.64176E+07 9.40294E+05  15672.      652.98      1.7878    


end timestep


start timestep kper="23" kstp="6" mode="normal"

 UBDSV1 SAVING     FLOW-JA-FACE ON UNIT   1015 AT TIME STEP      6, STRESS PERIOD     23
 UBDSV06 SAVING              WEL IN MODEL MUMODEL          PACKAGE MUMODEL         CONNECTED TO MODEL MUMODEL          PACKAGE WEL-1            ON UNIT   1015 AT TIME STEP      6, STRESS PERIOD     23
 UBDSV06 SAVING             RCHA IN MODEL MUMODEL          PACKAGE MUMODEL         CONNECTED TO MODEL MUMODEL          PACKAGE RCH-1            ON UNIT   1015 AT TIME STEP      6, STRESS PERIOD     23

 WEL PACKAGE (WEL-1) FLOW RATES   PERIOD     23   STEP        6
 -----------------------------------------------
   NUMBER   CELLID                    RATE      
 -----------------------------------------------
     1      (1,5,5)              -40000.000     
     2      (1,11,5)              0.0000000     
     3      (1,5,5)               0.0000000     
 -----------------------------------------------




 CHD PACKAGE (CHD-FROM-IBOUND) FLOW RATES   PERIOD     23   STEP        6
 -----------------------------------------------
   NUMBER   CELLID                    RATE      
 -----------------------------------------------
     1      (1,1,1)              -5243.5766     
     2      (1,1,2)              -5243.1338     
     3      (1,1,3)              -5240.4438     
     4      (1,1,4)              -5229.3181     
     5      (1,1,5)              -5207.1122     
     6      (1,1,6)              -5229.3200     
     7      (1,1,7)              -5240.4473     
     8      (1,1,8)              -5243.1384     
     9      (1,1,9)              -5243.5816     
     10     (1,21,1)             -5243.6498     
     11     (1,21,2)             -5243.6484     
     12     (1,21,3)             -5243.6468     
     13     (1,21,4)             -5243.6454     
     14     (1,21,5)             -5243.6446     
     15     (1,21,6)             -5243.6443     
     16     (1,21,7)             -5243.6452     
     17     (1,21,8)             -5243.6474     
     18     (1,21,9)             -5243.6496     
 -----------------------------------------------




 HEAD WILL BE SAVED ON UNIT 1016 AT END OF TIME STEP    6, STRESS PERIOD   23


  VOLUME BUDGET FOR ENTIRE MODEL AT END OF TIME STEP    6, STRESS PERIOD  23
  ---------------------------------------------------------------------------------------------------

     CUMULATIVE VOLUME      L**3       RATES FOR THIS TIME STEP      L**3/T          PACKAGE NAME    
     ------------------                 ------------------------                     ----------------

           IN:                                      IN:
           ---                                      ---
              STO-SS =    39708611.5508                STO-SS =      126160.8572     STORAGE                          
              STO-SY =     1214913.0821                STO-SY =        3877.0357     STORAGE                          
                 WEL =           0.0000                   WEL =           0.0000     WEL-1                            
                RCHA =    66671776.7360                  RCHA =        4275.0000     RCH-1                            
                 CHD =           0.0000                   CHD =           0.0000     CHD-FROM-IBOUND                  

            TOTAL IN =   107595301.3689              TOTAL IN =      134312.8929

          OUT:                                     OUT:
          ----                                     ----
              STO-SS =    32138818.0732                STO-SS =           0.0000     STORAGE                          
              STO-SY =      960715.3883                STO-SY =           0.0000     STORAGE                          
                 WEL =    11666289.9275                   WEL =       40000.0000     WEL-1                            
                RCHA =           0.0000                  RCHA =           0.0000     RCH-1                            
                 CHD =    62829482.1461                   CHD =       94312.8932     CHD-FROM-IBOUND                  

           TOTAL OUT =   107595305.5352             TOTAL OUT =      134312.8932

            IN - OUT =          -4.1663              IN - OUT =      -3.6743E-04

 PERCENT DISCREPANCY =          -0.00     PERCENT DISCREPANCY =          -0.00




         TIME SUMMARY AT END OF TIME STEP    6 IN STRESS PERIOD   23
                    SECONDS     MINUTES      HOURS       DAYS        YEARS
                    -----------------------------------------------------------
   TIME STEP LENGTH 4.03945E+05  6732.4      112.21      4.6753     1.28002E-02
 STRESS PERIOD TIME 1.61199E+06  26866.      447.77      18.657     5.10808E-02
         TOTAL TIME 5.68216E+07 9.47026E+05  15784.      657.66      1.8006    


end timestep


start timestep kper="23" kstp="7" mode="normal"

 UBDSV1 SAVING     FLOW-JA-FACE ON UNIT   1015 AT TIME STEP      7, STRESS PERIOD     23
 UBDSV06 SAVING              WEL IN MODEL MUMODEL          PACKAGE MUMODEL         CONNECTED TO MODEL MUMODEL          PACKAGE WEL-1            ON UNIT   1015 AT TIME STEP      7, STRESS PERIOD     23
 UBDSV06 SAVING             RCHA IN MODEL MUMODEL          PACKAGE MUMODEL         CONNECTED TO MODEL MUMODEL          PACKAGE RCH-1            ON UNIT   1015 AT TIME STEP      7, STRESS PERIOD     23

 WEL PACKAGE (WEL-1) FLOW RATES   PERIOD     23   STEP        7
 -----------------------------------------------
   NUMBER   CELLID                    RATE      
 -----------------------------------------------
     1      (1,5,5)              -40000.000     
     2      (1,11,5)              0.0000000     
     3      (1,5,5)               0.0000000     
 -----------------------------------------------




 CHD PACKAGE (CHD-FROM-IBOUND) FLOW RATES   PERIOD     23   STEP        7
 -----------------------------------------------
   NUMBER   CELLID                    RATE      
 -----------------------------------------------
     1      (1,1,1)              -5238.4349     
     2      (1,1,2)              -5237.9486     
     3      (1,1,3)              -5235.0420     
     4      (1,1,4)              -5223.2237     
     5      (1,1,5)              -5200.0607     
     6      (1,1,6)              -5223.2255     
     7      (1,1,7)              -5235.0455     
     8      (1,1,8)              -5237.9531     
     9      (1,1,9)              -5238.4398     
     10     (1,21,1)             -5238.5167     
     11     (1,21,2)             -5238.5154     
     12     (1,21,3)             -5238.5137     
     13     (1,21,4)             -5238.5124     
     14     (1,21,5)             -5238.5116     
     15     (1,21,6)             -5238.5113     
     16     (1,21,7)             -5238.5122     
     17     (1,21,8)             -5238.5144     
     18     (1,21,9)             -5238.5166     
 -----------------------------------------------




 HEAD WILL BE SAVED ON UNIT 1016 AT END OF TIME STEP    7, STRESS PERIOD   23


  VOLUME BUDGET FOR ENTIRE MODEL AT END OF TIME STEP    7, STRESS PERIOD  23
  ---------------------------------------------------------------------------------------------------

     CUMULATIVE VOLUME      L**3       RATES FOR THIS TIME STEP      L**3/T          PACKAGE NAME    
     ------------------                 ------------------------                     ----------------

           IN:                                      IN:
           ---                                      ---
              STO-SS =    40415891.2688                STO-SS =      126067.1367     STORAGE                          
              STO-SY =     1236646.7650                STO-SY =        3873.8608     STORAGE                          
                 WEL =           0.0000                   WEL =           0.0000     WEL-1                            
                RCHA =    66695760.9469                  RCHA =        4275.0000     RCH-1                            
                 CHD =           0.0000                   CHD =           0.0000     CHD-FROM-IBOUND                  

            TOTAL IN =   108348298.9807              TOTAL IN =      134215.9975

          OUT:                                     OUT:
          ----                                     ----
              STO-SS =    32138818.0732                STO-SS =           0.0000     STORAGE                          
              STO-SY =      960715.3883                STO-SY =           0.0000     STORAGE                          
                 WEL =    11890703.5968                   WEL =       40000.0000     WEL-1                            
                RCHA =           0.0000                  RCHA =           0.0000     RCH-1                            
                 CHD =    63358066.0920                   CHD =       94215.9981     CHD-FROM-IBOUND                  

           TOTAL OUT =   108348303.1504             TOTAL OUT =      134215.9981

            IN - OUT =          -4.1697              IN - OUT =      -6.1184E-04

 PERCENT DISCREPANCY =          -0.00     PERCENT DISCREPANCY =          -0.00




         TIME SUMMARY AT END OF TIME STEP    7 IN STRESS PERIOD   23
                    SECONDS     MINUTES      HOURS       DAYS        YEARS
                    -----------------------------------------------------------
   TIME STEP LENGTH 4.84734E+05  8078.9      134.65      5.6103     1.53603E-02
 STRESS PERIOD TIME 2.09672E+06  34945.      582.42      24.268     6.64410E-02
         TOTAL TIME 5.73063E+07 9.55105E+05  15918.      663.27      1.8159    


end timestep


start timestep kper="23" kstp="8" mode="normal"

 UBDSV1 SAVING     FLOW-JA-FACE ON UNIT   1015 AT TIME STEP      8, STRESS PERIOD     23
 UBDSV06 SAVING              WEL IN MODEL MUMODEL          PACKAGE MUMODEL         CONNECTED TO MODEL MUMODEL          PACKAGE WEL-1            ON UNIT   1015 AT TIME STEP      8, STRESS PERIOD     23
 UBDSV06 SAVING             RCHA IN MODEL MUMODEL          PACKAGE MUMODEL         CONNECTED TO MODEL MUMODEL          PACKAGE RCH-1            ON UNIT   1015 AT TIME STEP      8, STRESS PERIOD     23

 WEL PACKAGE (WEL-1) FLOW RATES   PERIOD     23   STEP        8
 -----------------------------------------------
   NUMBER   CELLID                    RATE      
 -----------------------------------------------
     1      (1,5,5)              -40000.000     
     2      (1,11,5)              0.0000000     
     3      (1,5,5)               0.0000000     
 -----------------------------------------------




 CHD PACKAGE (CHD-FROM-IBOUND) FLOW RATES   PERIOD     23   STEP        8
 -----------------------------------------------
   NUMBER   CELLID                    RATE      
 -----------------------------------------------
     1      (1,1,1)              -5232.3299     
     2      (1,1,2)              -5231.7869     
     3      (1,1,3)              -5228.6042     
     4      (1,1,4)              -5215.9211     
     5      (1,1,5)              -5191.5922     
     6      (1,1,6)              -5215.9229     
     7      (1,1,7)              -5228.6076     
     8      (1,1,8)              -5231.7914     
     9      (1,1,9)              -5232.3347     
     10     (1,21,1)             -5232.4234     
     11     (1,21,2)             -5232.4220     
     12     (1,21,3)             -5232.4204     
     13     (1,21,4)             -5232.4191     
     14     (1,21,5)             -5232.4183     
     15     (1,21,6)             -5232.4180     
     16     (1,21,7)             -5232.4189     
     17     (1,21,8)             -5232.4211     
     18     (1,21,9)             -5232.4233     
 -----------------------------------------------




 HEAD WILL BE SAVED ON UNIT 1016 AT END OF TIME STEP    8, STRESS PERIOD   23


  VOLUME BUDGET FOR ENTIRE MODEL AT END OF TIME STEP    8, STRESS PERIOD  23
  ---------------------------------------------------------------------------------------------------

     CUMULATIVE VOLUME      L**3       RATES FOR THIS TIME STEP      L**3/T          PACKAGE NAME    
     ------------------                 ------------------------                     ----------------

           IN:                                      IN:
           ---                                      ---
              STO-SS =    41263875.8690                STO-SS =      125955.5776     STORAGE                          
              STO-SY =     1262701.8452                STO-SY =        3870.0970     STORAGE                          
                 WEL =           0.0000                   WEL =           0.0000     WEL-1                            
                RCHA =    66724542.0000                  RCHA =        4275.0000     RCH-1                            
                 CHD =           0.0000                   CHD =           0.0000     CHD-FROM-IBOUND                  

            TOTAL IN =   109251119.7141              TOTAL IN =      134100.6746

          OUT:                                     OUT:
          ----                                     ----
              STO-SS =    32138818.0732                STO-SS =           0.0000     STORAGE                          
              STO-SY =      960715.3883                STO-SY =           0.0000     STORAGE                          
                 WEL =    12160000.0000                   WEL =       40000.0000     WEL-1                            
                RCHA =           0.0000                  RCHA =           0.0000     RCH-1                            
                 CHD =    63991590.4291                   CHD =       94100.6756     CHD-FROM-IBOUND                  

           TOTAL OUT =   109251123.8906             TOTAL OUT =      134100.6756

            IN - OUT =          -4.1765              IN - OUT =      -1.0089E-03

 PERCENT DISCREPANCY =          -0.00     PERCENT DISCREPANCY =          -0.00




         TIME SUMMARY AT END OF TIME STEP    8 IN STRESS PERIOD   23
                    SECONDS     MINUTES      HOURS       DAYS        YEARS
                    -----------------------------------------------------------
   TIME STEP LENGTH 5.81680E+05  9694.7      161.58      6.7324     1.84323E-02
 STRESS PERIOD TIME 2.67840E+06  44640.      744.00      31.000     8.48734E-02
         TOTAL TIME 5.78880E+07 9.64800E+05  16080.      670.00      1.8344    


end timestep


start timestep kper="24" kstp="1" mode="normal"


 OUTPUT CONTROL FOR STRESS PERIOD 24 IS REPEATED USING SETTINGS FROM A PREVIOUS STRESS PERIOD.


 STRESS PERIOD 24 IS TRANSIENT


 REUSING WELS FROM LAST STRESS PERIOD

 REUSING RCHS FROM LAST STRESS PERIOD

 REUSING CHDS FROM LAST STRESS PERIOD
 UBDSV1 SAVING     FLOW-JA-FACE ON UNIT   1015 AT TIME STEP      1, STRESS PERIOD     24
 UBDSV06 SAVING              WEL IN MODEL MUMODEL          PACKAGE MUMODEL         CONNECTED TO MODEL MUMODEL          PACKAGE WEL-1            ON UNIT   1015 AT TIME STEP      1, STRESS PERIOD     24
 UBDSV06 SAVING             RCHA IN MODEL MUMODEL          PACKAGE MUMODEL         CONNECTED TO MODEL MUMODEL          PACKAGE RCH-1            ON UNIT   1015 AT TIME STEP      1, STRESS PERIOD     24

 WEL PACKAGE (WEL-1) FLOW RATES   PERIOD     24   STEP        1
 -----------------------------------------------
   NUMBER   CELLID                    RATE      
 -----------------------------------------------
     1      (1,5,5)              -40000.000     
     2      (1,11,5)              0.0000000     
     3      (1,5,5)               0.0000000     
 -----------------------------------------------




 CHD PACKAGE (CHD-FROM-IBOUND) FLOW RATES   PERIOD     24   STEP        1
 -----------------------------------------------
   NUMBER   CELLID                    RATE      
 -----------------------------------------------
     1      (1,1,1)              -5230.6853     
     2      (1,1,2)              -5230.1267     
     3      (1,1,3)              -5226.8680     
     4      (1,1,4)              -5213.9487     
     5      (1,1,5)              -5189.3034     
     6      (1,1,6)              -5213.9505     
     7      (1,1,7)              -5226.8714     
     8      (1,1,8)              -5230.1311     
     9      (1,1,9)              -5230.6901     
     10     (1,21,1)             -5230.7820     
     11     (1,21,2)             -5230.7807     
     12     (1,21,3)             -5230.7791     
     13     (1,21,4)             -5230.7778     
     14     (1,21,5)             -5230.7769     
     15     (1,21,6)             -5230.7767     
     16     (1,21,7)             -5230.7776     
     17     (1,21,8)             -5230.7798     
     18     (1,21,9)             -5230.7820     
 -----------------------------------------------




 HEAD WILL BE SAVED ON UNIT 1016 AT END OF TIME STEP    1, STRESS PERIOD   24


  VOLUME BUDGET FOR ENTIRE MODEL AT END OF TIME STEP    1, STRESS PERIOD  24
  ---------------------------------------------------------------------------------------------------

     CUMULATIVE VOLUME      L**3       RATES FOR THIS TIME STEP      L**3/T          PACKAGE NAME    
     ------------------                 ------------------------                     ----------------

           IN:                                      IN:
           ---                                      ---
              STO-SS =    41492842.6572                STO-SS =      125924.7485     STORAGE                          
              STO-SY =     1269738.3064                STO-SY =        3869.8390     STORAGE                          
                 WEL =           0.0000                   WEL =           0.0000     WEL-1                            
                RCHA =    66732315.1584                  RCHA =        4275.0000     RCH-1                            
                 CHD =           0.0000                   CHD =           0.0000     CHD-FROM-IBOUND                  

            TOTAL IN =   109494896.1221              TOTAL IN =      134069.5876

          OUT:                                     OUT:
          ----                                     ----
              STO-SS =    32138818.0732                STO-SS =           0.0000     STORAGE                          
              STO-SY =      960715.3883                STO-SY =           0.0000     STORAGE                          
                 WEL =    12232731.3069                   WEL =       40000.0000     WEL-1                            
                RCHA =           0.0000                  RCHA =           0.0000     RCH-1                            
                 CHD =    64162635.5304                   CHD =       94069.5877     CHD-FROM-IBOUND                  

           TOTAL OUT =   109494900.2989             TOTAL OUT =      134069.5877

            IN - OUT =          -4.1768              IN - OUT =      -1.6560E-04

 PERCENT DISCREPANCY =          -0.00     PERCENT DISCREPANCY =          -0.00




         TIME SUMMARY AT END OF TIME STEP    1 IN STRESS PERIOD   24
                    SECONDS     MINUTES      HOURS       DAYS        YEARS
                    -----------------------------------------------------------
   TIME STEP LENGTH 1.57100E+05  2618.3      43.639      1.8183     4.97819E-03
 STRESS PERIOD TIME 1.57100E+05  2618.3      43.639      1.8183     4.97819E-03
         TOTAL TIME 5.80451E+07 9.67418E+05  16124.      671.82      1.8393    


end timestep


start timestep kper="24" kstp="2" mode="normal"

 UBDSV1 SAVING     FLOW-JA-FACE ON UNIT   1015 AT TIME STEP      2, STRESS PERIOD     24
 UBDSV06 SAVING              WEL IN MODEL MUMODEL          PACKAGE MUMODEL         CONNECTED TO MODEL MUMODEL          PACKAGE WEL-1            ON UNIT   1015 AT TIME STEP      2, STRESS PERIOD     24
 UBDSV06 SAVING             RCHA IN MODEL MUMODEL          PACKAGE MUMODEL         CONNECTED TO MODEL MUMODEL          PACKAGE RCH-1            ON UNIT   1015 AT TIME STEP      2, STRESS PERIOD     24

 WEL PACKAGE (WEL-1) FLOW RATES   PERIOD     24   STEP        2
 -----------------------------------------------
   NUMBER   CELLID                    RATE      
 -----------------------------------------------
     1      (1,5,5)              -40000.000     
     2      (1,11,5)              0.0000000     
     3      (1,5,5)               0.0000000     
 -----------------------------------------------




 CHD PACKAGE (CHD-FROM-IBOUND) FLOW RATES   PERIOD     24   STEP        2
 -----------------------------------------------
   NUMBER   CELLID                    RATE      
 -----------------------------------------------
     1      (1,1,1)              -5228.7190     
     2      (1,1,2)              -5228.1412     
     3      (1,1,3)              -5224.7898     
     4      (1,1,4)              -5211.5838     
     5      (1,1,5)              -5186.5573     
     6      (1,1,6)              -5211.5856     
     7      (1,1,7)              -5224.7932     
     8      (1,1,8)              -5228.1456     
     9      (1,1,9)              -5228.7239     
     10     (1,21,1)             -5228.8197     
     11     (1,21,2)             -5228.8184     
     12     (1,21,3)             -5228.8168     
     13     (1,21,4)             -5228.8155     
     14     (1,21,5)             -5228.8147     
     15     (1,21,6)             -5228.8144     
     16     (1,21,7)             -5228.8154     
     17     (1,21,8)             -5228.8175     
     18     (1,21,9)             -5228.8197     
 -----------------------------------------------




 HEAD WILL BE SAVED ON UNIT 1016 AT END OF TIME STEP    2, STRESS PERIOD   24


  VOLUME BUDGET FOR ENTIRE MODEL AT END OF TIME STEP    2, STRESS PERIOD  24
  ---------------------------------------------------------------------------------------------------

     CUMULATIVE VOLUME      L**3       RATES FOR THIS TIME STEP      L**3/T          PACKAGE NAME    
     ------------------                 ------------------------                     ----------------

           IN:                                      IN:
           ---                                      ---
              STO-SS =    41767524.3021                STO-SS =      125888.7709     STORAGE                          
              STO-SY =     1278179.4010                STO-SY =        3868.6204     STORAGE                          
                 WEL =           0.0000                   WEL =           0.0000     WEL-1                            
                RCHA =    66741642.9485                  RCHA =        4275.0000     RCH-1                            
                 CHD =           0.0000                   CHD =           0.0000     CHD-FROM-IBOUND                  

            TOTAL IN =   109787346.6517              TOTAL IN =      134032.3913

          OUT:                                     OUT:
          ----                                     ----
              STO-SS =    32138818.0732                STO-SS =           0.0000     STORAGE                          
              STO-SY =      960715.3883                STO-SY =           0.0000     STORAGE                          
                 WEL =    12320008.8752                   WEL =       40000.0000     WEL-1                            
                RCHA =           0.0000                  RCHA =           0.0000     RCH-1                            
                 CHD =    64367808.4924                   CHD =       94032.3916     CHD-FROM-IBOUND                  

           TOTAL OUT =   109787350.8291             TOTAL OUT =      134032.3916

            IN - OUT =          -4.1774              IN - OUT =      -2.8572E-04

 PERCENT DISCREPANCY =          -0.00     PERCENT DISCREPANCY =          -0.00




         TIME SUMMARY AT END OF TIME STEP    2 IN STRESS PERIOD   24
                    SECONDS     MINUTES      HOURS       DAYS        YEARS
                    -----------------------------------------------------------
   TIME STEP LENGTH 1.88520E+05  3142.0      52.367      2.1819     5.97382E-03
 STRESS PERIOD TIME 3.45619E+05  5760.3      96.005      4.0002     1.09520E-02
         TOTAL TIME 5.82336E+07 9.70560E+05  16176.      674.00      1.8453    


end timestep


start timestep kper="24" kstp="3" mode="normal"

 UBDSV1 SAVING     FLOW-JA-FACE ON UNIT   1015 AT TIME STEP      3, STRESS PERIOD     24
 UBDSV06 SAVING              WEL IN MODEL MUMODEL          PACKAGE MUMODEL         CONNECTED TO MODEL MUMODEL          PACKAGE WEL-1            ON UNIT   1015 AT TIME STEP      3, STRESS PERIOD     24
 UBDSV06 SAVING             RCHA IN MODEL MUMODEL          PACKAGE MUMODEL         CONNECTED TO MODEL MUMODEL          PACKAGE RCH-1            ON UNIT   1015 AT TIME STEP      3, STRESS PERIOD     24

 WEL PACKAGE (WEL-1) FLOW RATES   PERIOD     24   STEP        3
 -----------------------------------------------
   NUMBER   CELLID                    RATE      
 -----------------------------------------------
     1      (1,5,5)              -40000.000     
     2      (1,11,5)              0.0000000     
     3      (1,5,5)               0.0000000     
 -----------------------------------------------




 CHD PACKAGE (CHD-FROM-IBOUND) FLOW RATES   PERIOD     24   STEP        3
 -----------------------------------------------
   NUMBER   CELLID                    RATE      
 -----------------------------------------------
     1      (1,1,1)              -5226.3691     
     2      (1,1,2)              -5225.7675     
     3      (1,1,3)              -5222.3023     
     4      (1,1,4)              -5208.7472     
     5      (1,1,5)              -5183.2609     
     6      (1,1,6)              -5208.7490     
     7      (1,1,7)              -5222.3056     
     8      (1,1,8)              -5225.7719     
     9      (1,1,9)              -5226.3739     
     10     (1,21,1)             -5226.4748     
     11     (1,21,2)             -5226.4735     
     12     (1,21,3)             -5226.4719     
     13     (1,21,4)             -5226.4706     
     14     (1,21,5)             -5226.4698     
     15     (1,21,6)             -5226.4696     
     16     (1,21,7)             -5226.4705     
     17     (1,21,8)             -5226.4727     
     18     (1,21,9)             -5226.4748     
 -----------------------------------------------




 HEAD WILL BE SAVED ON UNIT 1016 AT END OF TIME STEP    3, STRESS PERIOD   24


  VOLUME BUDGET FOR ENTIRE MODEL AT END OF TIME STEP    3, STRESS PERIOD  24
  ---------------------------------------------------------------------------------------------------

     CUMULATIVE VOLUME      L**3       RATES FOR THIS TIME STEP      L**3/T          PACKAGE NAME    
     ------------------                 ------------------------                     ----------------

           IN:                                      IN:
           ---                                      ---
              STO-SS =    42097029.5824                STO-SS =      125845.7306     STORAGE                          
              STO-SY =     1288304.9040                STO-SY =        3867.1651     STORAGE                          
                 WEL =           0.0000                   WEL =           0.0000     WEL-1                            
                RCHA =    66752836.2967                  RCHA =        4275.0000     RCH-1                            
                 CHD =           0.0000                   CHD =           0.0000     CHD-FROM-IBOUND                  

            TOTAL IN =   110138170.7831              TOTAL IN =      133987.8957

          OUT:                                     OUT:
          ----                                     ----
              STO-SS =    32138818.0732                STO-SS =           0.0000     STORAGE                          
              STO-SY =      960715.3883                STO-SY =           0.0000     STORAGE                          
                 WEL =    12424741.9571                   WEL =       40000.0000     WEL-1                            
                RCHA =           0.0000                  RCHA =           0.0000     RCH-1                            
                 CHD =    64613899.5420                   CHD =       93987.8958     CHD-FROM-IBOUND                  

           TOTAL OUT =   110138174.9607             TOTAL OUT =      133987.8958

            IN - OUT =          -4.1776              IN - OUT =      -6.0819E-05

 PERCENT DISCREPANCY =          -0.00     PERCENT DISCREPANCY =          -0.00




         TIME SUMMARY AT END OF TIME STEP    3 IN STRESS PERIOD   24
                    SECONDS     MINUTES      HOURS       DAYS        YEARS
                    -----------------------------------------------------------
   TIME STEP LENGTH 2.26223E+05  3770.4      62.840      2.6183     7.16859E-03
 STRESS PERIOD TIME 5.71843E+05  9530.7      158.85      6.6185     1.81206E-02
         TOTAL TIME 5.84598E+07 9.74331E+05  16239.      676.62      1.8525    


end timestep


start timestep kper="24" kstp="4" mode="normal"

 UBDSV1 SAVING     FLOW-JA-FACE ON UNIT   1015 AT TIME STEP      4, STRESS PERIOD     24
 UBDSV06 SAVING              WEL IN MODEL MUMODEL          PACKAGE MUMODEL         CONNECTED TO MODEL MUMODEL          PACKAGE WEL-1            ON UNIT   1015 AT TIME STEP      4, STRESS PERIOD     24
 UBDSV06 SAVING             RCHA IN MODEL MUMODEL          PACKAGE MUMODEL         CONNECTED TO MODEL MUMODEL          PACKAGE RCH-1            ON UNIT   1015 AT TIME STEP      4, STRESS PERIOD     24

 WEL PACKAGE (WEL-1) FLOW RATES   PERIOD     24   STEP        4
 -----------------------------------------------
   NUMBER   CELLID                    RATE      
 -----------------------------------------------
     1      (1,5,5)              -40000.000     
     2      (1,11,5)              0.0000000     
     3      (1,5,5)               0.0000000     
 -----------------------------------------------




 CHD PACKAGE (CHD-FROM-IBOUND) FLOW RATES   PERIOD     24   STEP        4
 -----------------------------------------------
   NUMBER   CELLID                    RATE      
 -----------------------------------------------
     1      (1,1,1)              -5223.5629     
     2      (1,1,2)              -5222.9317     
     3      (1,1,3)              -5219.3262     
     4      (1,1,4)              -5205.3450     
     5      (1,1,5)              -5179.3035     
     6      (1,1,6)              -5205.3468     
     7      (1,1,7)              -5219.3295     
     8      (1,1,8)              -5222.9361     
     9      (1,1,9)              -5223.5677     
     10     (1,21,1)             -5223.6749     
     11     (1,21,2)             -5223.6736     
     12     (1,21,3)             -5223.6720     
     13     (1,21,4)             -5223.6708     
     14     (1,21,5)             -5223.6699     
     15     (1,21,6)             -5223.6697     
     16     (1,21,7)             -5223.6706     
     17     (1,21,8)             -5223.6728     
     18     (1,21,9)             -5223.6749     
 -----------------------------------------------




 HEAD WILL BE SAVED ON UNIT 1016 AT END OF TIME STEP    4, STRESS PERIOD   24


  VOLUME BUDGET FOR ENTIRE MODEL AT END OF TIME STEP    4, STRESS PERIOD  24
  ---------------------------------------------------------------------------------------------------

     CUMULATIVE VOLUME      L**3       RATES FOR THIS TIME STEP      L**3/T          PACKAGE NAME    
     ------------------                 ------------------------                     ----------------

           IN:                                      IN:
           ---                                      ---
              STO-SS =    42492274.2298                STO-SS =      125794.2700     STORAGE                          
              STO-SY =     1300450.0518                STO-SY =        3865.4287     STORAGE                          
                 WEL =           0.0000                   WEL =           0.0000     WEL-1                            
                RCHA =    66766268.3144                  RCHA =        4275.0000     RCH-1                            
                 CHD =           0.0000                   CHD =           0.0000     CHD-FROM-IBOUND                  

            TOTAL IN =   110558992.5960              TOTAL IN =      133934.6986

          OUT:                                     OUT:
          ----                                     ----
              STO-SS =    32138818.0732                STO-SS =           0.0000     STORAGE                          
              STO-SY =      960715.3883                STO-SY =           0.0000     STORAGE                          
                 WEL =    12550421.6554                   WEL =       40000.0000     WEL-1                            
                RCHA =           0.0000                  RCHA =           0.0000     RCH-1                            
                 CHD =    64909041.6570                   CHD =       93934.6987     CHD-FROM-IBOUND                  

           TOTAL OUT =   110558996.7739             TOTAL OUT =      133934.6987

            IN - OUT =          -4.1779              IN - OUT =      -1.0694E-04

 PERCENT DISCREPANCY =          -0.00     PERCENT DISCREPANCY =          -0.00




         TIME SUMMARY AT END OF TIME STEP    4 IN STRESS PERIOD   24
                    SECONDS     MINUTES      HOURS       DAYS        YEARS
                    -----------------------------------------------------------
   TIME STEP LENGTH 2.71468E+05  4524.5      75.408      3.1420     8.60231E-03
 STRESS PERIOD TIME 8.43311E+05  14055.      234.25      9.7605     2.67229E-02
         TOTAL TIME 5.87313E+07 9.78855E+05  16314.      679.76      1.8611    


end timestep


start timestep kper="24" kstp="5" mode="normal"

 UBDSV1 SAVING     FLOW-JA-FACE ON UNIT   1015 AT TIME STEP      5, STRESS PERIOD     24
 UBDSV06 SAVING              WEL IN MODEL MUMODEL          PACKAGE MUMODEL         CONNECTED TO MODEL MUMODEL          PACKAGE WEL-1            ON UNIT   1015 AT TIME STEP      5, STRESS PERIOD     24
 UBDSV06 SAVING             RCHA IN MODEL MUMODEL          PACKAGE MUMODEL         CONNECTED TO MODEL MUMODEL          PACKAGE RCH-1            ON UNIT   1015 AT TIME STEP      5, STRESS PERIOD     24

 WEL PACKAGE (WEL-1) FLOW RATES   PERIOD     24   STEP        5
 -----------------------------------------------
   NUMBER   CELLID                    RATE      
 -----------------------------------------------
     1      (1,5,5)              -40000.000     
     2      (1,11,5)              0.0000000     
     3      (1,5,5)               0.0000000     
 -----------------------------------------------




 CHD PACKAGE (CHD-FROM-IBOUND) FLOW RATES   PERIOD     24   STEP        5
 -----------------------------------------------
   NUMBER   CELLID                    RATE      
 -----------------------------------------------
     1      (1,1,1)              -5220.2149     
     2      (1,1,2)              -5219.5466     
     3      (1,1,3)              -5215.7674     
     4      (1,1,4)              -5201.2646     
     5      (1,1,5)              -5174.5521     
     6      (1,1,6)              -5201.2663     
     7      (1,1,7)              -5215.7707     
     8      (1,1,8)              -5219.5510     
     9      (1,1,9)              -5220.2196     
     10     (1,21,1)             -5220.3349     
     11     (1,21,2)             -5220.3336     
     12     (1,21,3)             -5220.3320     
     13     (1,21,4)             -5220.3308     
     14     (1,21,5)             -5220.3299     
     15     (1,21,6)             -5220.3297     
     16     (1,21,7)             -5220.3306     
     17     (1,21,8)             -5220.3328     
     18     (1,21,9)             -5220.3349     
 -----------------------------------------------




 HEAD WILL BE SAVED ON UNIT 1016 AT END OF TIME STEP    5, STRESS PERIOD   24


  VOLUME BUDGET FOR ENTIRE MODEL AT END OF TIME STEP    5, STRESS PERIOD  24
  ---------------------------------------------------------------------------------------------------

     CUMULATIVE VOLUME      L**3       RATES FOR THIS TIME STEP      L**3/T          PACKAGE NAME    
     ------------------                 ------------------------                     ----------------

           IN:                                      IN:
           ---                                      ---
              STO-SS =    42966335.9774                STO-SS =      125732.7832     STORAGE                          
              STO-SY =     1315016.4260                STO-SY =        3863.3591     STORAGE                          
                 WEL =           0.0000                   WEL =           0.0000     WEL-1                            
                RCHA =    66782386.7357                  RCHA =        4275.0000     RCH-1                            
                 CHD =           0.0000                   CHD =           0.0000     CHD-FROM-IBOUND                  

            TOTAL IN =   111063739.1391              TOTAL IN =      133871.1423

          OUT:                                     OUT:
          ----                                     ----
              STO-SS =    32138818.0732                STO-SS =           0.0000     STORAGE                          
              STO-SY =      960715.3883                STO-SY =           0.0000     STORAGE                          
                 WEL =    12701237.2934                   WEL =       40000.0000     WEL-1                            
                RCHA =           0.0000                  RCHA =           0.0000     RCH-1                            
                 CHD =    65262972.5628                   CHD =       93871.1424     CHD-FROM-IBOUND                  

           TOTAL OUT =   111063743.3177             TOTAL OUT =      133871.1424

            IN - OUT =          -4.1786              IN - OUT =      -1.8044E-04

 PERCENT DISCREPANCY =          -0.00     PERCENT DISCREPANCY =          -0.00




         TIME SUMMARY AT END OF TIME STEP    5 IN STRESS PERIOD   24
                    SECONDS     MINUTES      HOURS       DAYS        YEARS
                    -----------------------------------------------------------
   TIME STEP LENGTH 3.25762E+05  5429.4      90.489      3.7704     1.03228E-02
 STRESS PERIOD TIME 1.16907E+06  19485.      324.74      13.531     3.70457E-02
         TOTAL TIME 5.90571E+07 9.84285E+05  16405.      683.53      1.8714    


end timestep


start timestep kper="24" kstp="6" mode="normal"

 UBDSV1 SAVING     FLOW-JA-FACE ON UNIT   1015 AT TIME STEP      6, STRESS PERIOD     24
 UBDSV06 SAVING              WEL IN MODEL MUMODEL          PACKAGE MUMODEL         CONNECTED TO MODEL MUMODEL          PACKAGE WEL-1            ON UNIT   1015 AT TIME STEP      6, STRESS PERIOD     24
 UBDSV06 SAVING             RCHA IN MODEL MUMODEL          PACKAGE MUMODEL         CONNECTED TO MODEL MUMODEL          PACKAGE RCH-1            ON UNIT   1015 AT TIME STEP      6, STRESS PERIOD     24

 WEL PACKAGE (WEL-1) FLOW RATES   PERIOD     24   STEP        6
 -----------------------------------------------
   NUMBER   CELLID                    RATE      
 -----------------------------------------------
     1      (1,5,5)              -40000.000     
     2      (1,11,5)              0.0000000     
     3      (1,5,5)               0.0000000     
 -----------------------------------------------




 CHD PACKAGE (CHD-FROM-IBOUND) FLOW RATES   PERIOD     24   STEP        6
 -----------------------------------------------
   NUMBER   CELLID                    RATE      
 -----------------------------------------------
     1      (1,1,1)              -5216.2248     
     2      (1,1,2)              -5215.5098     
     3      (1,1,3)              -5211.5142     
     4      (1,1,4)              -5196.3705     
     5      (1,1,5)              -5168.8463     
     6      (1,1,6)              -5196.3723     
     7      (1,1,7)              -5211.5175     
     8      (1,1,8)              -5215.5141     
     9      (1,1,9)              -5216.2295     
     10     (1,21,1)             -5216.3550     
     11     (1,21,2)             -5216.3538     
     12     (1,21,3)             -5216.3522     
     13     (1,21,4)             -5216.3509     
     14     (1,21,5)             -5216.3501     
     15     (1,21,6)             -5216.3499     
     16     (1,21,7)             -5216.3509     
     17     (1,21,8)             -5216.3530     
     18     (1,21,9)             -5216.3551     
 -----------------------------------------------




 HEAD WILL BE SAVED ON UNIT 1016 AT END OF TIME STEP    6, STRESS PERIOD   24


  VOLUME BUDGET FOR ENTIRE MODEL AT END OF TIME STEP    6, STRESS PERIOD  24
  ---------------------------------------------------------------------------------------------------

     CUMULATIVE VOLUME      L**3       RATES FOR THIS TIME STEP      L**3/T          PACKAGE NAME    
     ------------------                 ------------------------                     ----------------

           IN:                                      IN:
           ---                                      ---
              STO-SS =    43534877.9368                STO-SS =      125659.3739     STORAGE                          
              STO-SY =     1332484.9286                STO-SY =        3860.8955     STORAGE                          
                 WEL =           0.0000                   WEL =           0.0000     WEL-1                            
                RCHA =    66801728.8413                  RCHA =        4275.0000     RCH-1                            
                 CHD =           0.0000                   CHD =           0.0000     CHD-FROM-IBOUND                  

            TOTAL IN =   111669091.7067              TOTAL IN =      133795.2694

          OUT:                                     OUT:
          ----                                     ----
              STO-SS =    32138818.0732                STO-SS =           0.0000     STORAGE                          
              STO-SY =      960715.3883                STO-SY =           0.0000     STORAGE                          
                 WEL =    12882216.0589                   WEL =       40000.0000     WEL-1                            
                RCHA =           0.0000                  RCHA =           0.0000     RCH-1                            
                 CHD =    65687346.3662                   CHD =       93795.2698     CHD-FROM-IBOUND                  

           TOTAL OUT =   111669095.8867             TOTAL OUT =      133795.2698

            IN - OUT =          -4.1800              IN - OUT =      -3.0326E-04

 PERCENT DISCREPANCY =          -0.00     PERCENT DISCREPANCY =          -0.00




         TIME SUMMARY AT END OF TIME STEP    6 IN STRESS PERIOD   24
                    SECONDS     MINUTES      HOURS       DAYS        YEARS
                    -----------------------------------------------------------
   TIME STEP LENGTH 3.90914E+05  6515.2      108.59      4.5245     1.23873E-02
 STRESS PERIOD TIME 1.55999E+06  26000.      433.33      18.055     4.94330E-02
         TOTAL TIME 5.94480E+07 9.90800E+05  16513.      688.06      1.8838    


end timestep


start timestep kper="24" kstp="7" mode="normal"

 UBDSV1 SAVING     FLOW-JA-FACE ON UNIT   1015 AT TIME STEP      7, STRESS PERIOD     24
 UBDSV06 SAVING              WEL IN MODEL MUMODEL          PACKAGE MUMODEL         CONNECTED TO MODEL MUMODEL          PACKAGE WEL-1            ON UNIT   1015 AT TIME STEP      7, STRESS PERIOD     24
 UBDSV06 SAVING             RCHA IN MODEL MUMODEL          PACKAGE MUMODEL         CONNECTED TO MODEL MUMODEL          PACKAGE RCH-1            ON UNIT   1015 AT TIME STEP      7, STRESS PERIOD     24

 WEL PACKAGE (WEL-1) FLOW RATES   PERIOD     24   STEP        7
 -----------------------------------------------
   NUMBER   CELLID                    RATE      
 -----------------------------------------------
     1      (1,5,5)              -40000.000     
     2      (1,11,5)              0.0000000     
     3      (1,5,5)               0.0000000     
 -----------------------------------------------




 CHD PACKAGE (CHD-FROM-IBOUND) FLOW RATES   PERIOD     24   STEP        7
 -----------------------------------------------
   NUMBER   CELLID                    RATE      
 -----------------------------------------------
     1      (1,1,1)              -5211.4755     
     2      (1,1,2)              -5210.7010     
     3      (1,1,3)              -5206.4343     
     4      (1,1,4)              -5190.5004     
     5      (1,1,5)              -5161.9933     
     6      (1,1,6)              -5190.5021     
     7      (1,1,7)              -5206.4375     
     8      (1,1,8)              -5210.7053     
     9      (1,1,9)              -5211.4801     
     10     (1,21,1)             -5211.6191     
     11     (1,21,2)             -5211.6178     
     12     (1,21,3)             -5211.6162     
     13     (1,21,4)             -5211.6150     
     14     (1,21,5)             -5211.6142     
     15     (1,21,6)             -5211.6140     
     16     (1,21,7)             -5211.6150     
     17     (1,21,8)             -5211.6171     
     18     (1,21,9)             -5211.6192     
 -----------------------------------------------




 HEAD WILL BE SAVED ON UNIT 1016 AT END OF TIME STEP    7, STRESS PERIOD   24


  VOLUME BUDGET FOR ENTIRE MODEL AT END OF TIME STEP    7, STRESS PERIOD  24
  ---------------------------------------------------------------------------------------------------

     CUMULATIVE VOLUME      L**3       RATES FOR THIS TIME STEP      L**3/T          PACKAGE NAME    
     ------------------                 ------------------------                     ----------------

           IN:                                      IN:
           ---                                      ---
              STO-SS =    44216652.8673                STO-SS =      125571.8092     STORAGE                          
              STO-SY =     1353431.2332                STO-SY =        3857.9673     STORAGE                          
                 WEL =           0.0000                   WEL =           0.0000     WEL-1                            
                RCHA =    66824939.3680                  RCHA =        4275.0000     RCH-1                            
                 CHD =           0.0000                   CHD =           0.0000     CHD-FROM-IBOUND                  

            TOTAL IN =   112395023.4685              TOTAL IN =      133704.7765

          OUT:                                     OUT:
          ----                                     ----
              STO-SS =    32138818.0732                STO-SS =           0.0000     STORAGE                          
              STO-SY =      960715.3883                STO-SY =           0.0000     STORAGE                          
                 WEL =    13099390.5776                   WEL =       40000.0000     WEL-1                            
                RCHA =           0.0000                  RCHA =           0.0000     RCH-1                            
                 CHD =    66196103.6121                   CHD =       93704.7770     CHD-FROM-IBOUND                  

           TOTAL OUT =   112395027.6512             TOTAL OUT =      133704.7770

            IN - OUT =          -4.1827              IN - OUT =      -5.0467E-04

 PERCENT DISCREPANCY =          -0.00     PERCENT DISCREPANCY =          -0.00




         TIME SUMMARY AT END OF TIME STEP    7 IN STRESS PERIOD   24
                    SECONDS     MINUTES      HOURS       DAYS        YEARS
                    -----------------------------------------------------------
   TIME STEP LENGTH 4.69097E+05  7818.3      130.30      5.4294     1.48648E-02
 STRESS PERIOD TIME 2.02908E+06  33818.      563.63      23.485     6.42978E-02
         TOTAL TIME 5.99171E+07 9.98618E+05  16644.      693.48      1.8987    


end timestep


start timestep kper="24" kstp="8" mode="normal"

 UBDSV1 SAVING     FLOW-JA-FACE ON UNIT   1015 AT TIME STEP      8, STRESS PERIOD     24
 UBDSV06 SAVING              WEL IN MODEL MUMODEL          PACKAGE MUMODEL         CONNECTED TO MODEL MUMODEL          PACKAGE WEL-1            ON UNIT   1015 AT TIME STEP      8, STRESS PERIOD     24
 UBDSV06 SAVING             RCHA IN MODEL MUMODEL          PACKAGE MUMODEL         CONNECTED TO MODEL MUMODEL          PACKAGE RCH-1            ON UNIT   1015 AT TIME STEP      8, STRESS PERIOD     24

 WEL PACKAGE (WEL-1) FLOW RATES   PERIOD     24   STEP        8
 -----------------------------------------------
   NUMBER   CELLID                    RATE      
 -----------------------------------------------
     1      (1,5,5)              -40000.000     
     2      (1,11,5)              0.0000000     
     3      (1,5,5)               0.0000000     
 -----------------------------------------------




 CHD PACKAGE (CHD-FROM-IBOUND) FLOW RATES   PERIOD     24   STEP        8
 -----------------------------------------------
   NUMBER   CELLID                    RATE      
 -----------------------------------------------
     1      (1,1,1)              -5205.8309     
     2      (1,1,2)              -5204.9800     
     3      (1,1,3)              -5200.3711     
     4      (1,1,4)              -5183.4587     
     5      (1,1,5)              -5153.7602     
     6      (1,1,6)              -5183.4604     
     7      (1,1,7)              -5200.3743     
     8      (1,1,8)              -5204.9842     
     9      (1,1,9)              -5205.8355     
     10     (1,21,1)             -5205.9920     
     11     (1,21,2)             -5205.9908     
     12     (1,21,3)             -5205.9893     
     13     (1,21,4)             -5205.9880     
     14     (1,21,5)             -5205.9873     
     15     (1,21,6)             -5205.9871     
     16     (1,21,7)             -5205.9880     
     17     (1,21,8)             -5205.9902     
     18     (1,21,9)             -5205.9922     
 -----------------------------------------------




 HEAD WILL BE SAVED ON UNIT 1016 AT END OF TIME STEP    8, STRESS PERIOD   24


  VOLUME BUDGET FOR ENTIRE MODEL AT END OF TIME STEP    8, STRESS PERIOD  24
  ---------------------------------------------------------------------------------------------------

     CUMULATIVE VOLUME      L**3       RATES FOR THIS TIME STEP      L**3/T          PACKAGE NAME    
     ------------------                 ------------------------                     ----------------

           IN:                                      IN:
           ---                                      ---
              STO-SS =    45034102.9685                STO-SS =      125467.4668     STORAGE                          
              STO-SY =     1378544.1606                STO-SY =        3854.4926     STORAGE                          
                 WEL =           0.0000                   WEL =           0.0000     WEL-1                            
                RCHA =    66852792.0000                  RCHA =        4275.0000     RCH-1                            
                 CHD =           0.0000                   CHD =           0.0000     CHD-FROM-IBOUND                  

            TOTAL IN =   113265439.1291              TOTAL IN =      133596.9594

          OUT:                                     OUT:
          ----                                     ----
              STO-SS =    32138818.0732                STO-SS =           0.0000     STORAGE                          
              STO-SY =      960715.3883                STO-SY =           0.0000     STORAGE                          
                 WEL =    13360000.0000                   WEL =       40000.0000     WEL-1                            
                RCHA =           0.0000                  RCHA =           0.0000     RCH-1                            
                 CHD =    66805909.8556                   CHD =       93596.9602     CHD-FROM-IBOUND                  

           TOTAL OUT =   113265443.3172             TOTAL OUT =      133596.9602

            IN - OUT =          -4.1881              IN - OUT =      -8.3484E-04

 PERCENT DISCREPANCY =          -0.00     PERCENT DISCREPANCY =          -0.00




         TIME SUMMARY AT END OF TIME STEP    8 IN STRESS PERIOD   24
                    SECONDS     MINUTES      HOURS       DAYS        YEARS
                    -----------------------------------------------------------
   TIME STEP LENGTH 5.62916E+05  9381.9      156.37      6.5152     1.78377E-02
 STRESS PERIOD TIME 2.59200E+06  43200.      720.00      30.000     8.21355E-02
         TOTAL TIME 6.04800E+07 1.00800E+06  16800.      700.00      1.9165    


end timestep


start timestep kper="25" kstp="1" mode="normal"


 OUTPUT CONTROL FOR STRESS PERIOD 25 IS REPEATED USING SETTINGS FROM A PREVIOUS STRESS PERIOD.


 STRESS PERIOD 25 IS TRANSIENT


 REUSING WELS FROM LAST STRESS PERIOD

 REUSING CHDS FROM LAST STRESS PERIOD
 UBDSV1 SAVING     FLOW-JA-FACE ON UNIT   1015 AT TIME STEP      1, STRESS PERIOD     25
 UBDSV06 SAVING              WEL IN MODEL MUMODEL          PACKAGE MUMODEL         CONNECTED TO MODEL MUMODEL          PACKAGE WEL-1            ON UNIT   1015 AT TIME STEP      1, STRESS PERIOD     25
 UBDSV06 SAVING             RCHA IN MODEL MUMODEL          PACKAGE MUMODEL         CONNECTED TO MODEL MUMODEL          PACKAGE RCH-1            ON UNIT   1015 AT TIME STEP      1, STRESS PERIOD     25

 WEL PACKAGE (WEL-1) FLOW RATES   PERIOD     25   STEP        1
 -----------------------------------------------
   NUMBER   CELLID                    RATE      
 -----------------------------------------------
     1      (1,5,5)              -40000.000     
     2      (1,11,5)              0.0000000     
     3      (1,5,5)               0.0000000     
 -----------------------------------------------




 CHD PACKAGE (CHD-FROM-IBOUND) FLOW RATES   PERIOD     25   STEP        1
 -----------------------------------------------
   NUMBER   CELLID                    RATE      
 -----------------------------------------------
     1      (1,1,1)              -5204.9934     
     2      (1,1,2)              -5204.1201     
     3      (1,1,3)              -5199.4110     
     4      (1,1,4)              -5182.2137     
     5      (1,1,5)              -5152.1706     
     6      (1,1,6)              -5182.2154     
     7      (1,1,7)              -5199.4142     
     8      (1,1,8)              -5204.1243     
     9      (1,1,9)              -5204.9980     
     10     (1,21,1)             -5205.1598     
     11     (1,21,2)             -5205.1585     
     12     (1,21,3)             -5205.1570     
     13     (1,21,4)             -5205.1558     
     14     (1,21,5)             -5205.1550     
     15     (1,21,6)             -5205.1548     
     16     (1,21,7)             -5205.1558     
     17     (1,21,8)             -5205.1579     
     18     (1,21,9)             -5205.1599     
 -----------------------------------------------




 HEAD WILL BE SAVED ON UNIT 1016 AT END OF TIME STEP    1, STRESS PERIOD   25


  VOLUME BUDGET FOR ENTIRE MODEL AT END OF TIME STEP    1, STRESS PERIOD  25
  ---------------------------------------------------------------------------------------------------

     CUMULATIVE VOLUME      L**3       RATES FOR THIS TIME STEP      L**3/T          PACKAGE NAME    
     ------------------                 ------------------------                     ----------------

           IN:                                      IN:
           ---                                      ---
              STO-SS =    45199634.0639                STO-SS =       88100.3736     STORAGE                          
              STO-SY =     1383672.9748                STO-SY =        2729.7013     STORAGE                          
                 WEL =           0.0000                   WEL =           0.0000     WEL-1                            
                RCHA =    66933114.6370                  RCHA =       42750.0000     RCH-1                            
                 CHD =           0.0000                   CHD =           0.0000     CHD-FROM-IBOUND                  

            TOTAL IN =   113516421.6757              TOTAL IN =      133580.0748

          OUT:                                     OUT:
          ----                                     ----
              STO-SS =    32138818.0732                STO-SS =           0.0000     STORAGE                          
              STO-SY =      960715.3883                STO-SY =           0.0000     STORAGE                          
                 WEL =    13435155.6838                   WEL =       40000.0000     WEL-1                            
                RCHA =           0.0000                  RCHA =           0.0000     RCH-1                            
                 CHD =    66981736.7188                   CHD =       93580.0750     CHD-FROM-IBOUND                  

           TOTAL OUT =   113516425.8641             TOTAL OUT =      133580.0750

            IN - OUT =          -4.1884              IN - OUT =      -1.5139E-04

 PERCENT DISCREPANCY =          -0.00     PERCENT DISCREPANCY =          -0.00




         TIME SUMMARY AT END OF TIME STEP    1 IN STRESS PERIOD   25
                    SECONDS     MINUTES      HOURS       DAYS        YEARS
                    -----------------------------------------------------------
   TIME STEP LENGTH 1.62336E+05  2705.6      45.093      1.8789     5.14413E-03
 STRESS PERIOD TIME 1.62336E+05  2705.6      45.093      1.8789     5.14413E-03
         TOTAL TIME 6.06423E+07 1.01071E+06  16845.      701.88      1.9216    


end timestep


start timestep kper="25" kstp="2" mode="normal"

 UBDSV1 SAVING     FLOW-JA-FACE ON UNIT   1015 AT TIME STEP      2, STRESS PERIOD     25
 UBDSV06 SAVING              WEL IN MODEL MUMODEL          PACKAGE MUMODEL         CONNECTED TO MODEL MUMODEL          PACKAGE WEL-1            ON UNIT   1015 AT TIME STEP      2, STRESS PERIOD     25
 UBDSV06 SAVING             RCHA IN MODEL MUMODEL          PACKAGE MUMODEL         CONNECTED TO MODEL MUMODEL          PACKAGE RCH-1            ON UNIT   1015 AT TIME STEP      2, STRESS PERIOD     25

 WEL PACKAGE (WEL-1) FLOW RATES   PERIOD     25   STEP        2
 -----------------------------------------------
   NUMBER   CELLID                    RATE      
 -----------------------------------------------
     1      (1,5,5)              -40000.000     
     2      (1,11,5)              0.0000000     
     3      (1,5,5)               0.0000000     
 -----------------------------------------------




 CHD PACKAGE (CHD-FROM-IBOUND) FLOW RATES   PERIOD     25   STEP        2
 -----------------------------------------------
   NUMBER   CELLID                    RATE      
 -----------------------------------------------
     1      (1,1,1)              -5203.9915     
     2      (1,1,2)              -5203.0906     
     3      (1,1,3)              -5198.2594     
     4      (1,1,4)              -5180.7170     
     5      (1,1,5)              -5150.2592     
     6      (1,1,6)              -5180.7187     
     7      (1,1,7)              -5198.2626     
     8      (1,1,8)              -5203.0947     
     9      (1,1,9)              -5203.9960     
     10     (1,21,1)             -5204.1643     
     11     (1,21,2)             -5204.1630     
     12     (1,21,3)             -5204.1615     
     13     (1,21,4)             -5204.1603     
     14     (1,21,5)             -5204.1595     
     15     (1,21,6)             -5204.1594     
     16     (1,21,7)             -5204.1603     
     17     (1,21,8)             -5204.1624     
     18     (1,21,9)             -5204.1645     
 -----------------------------------------------




 HEAD WILL BE SAVED ON UNIT 1016 AT END OF TIME STEP    2, STRESS PERIOD   25


  VOLUME BUDGET FOR ENTIRE MODEL AT END OF TIME STEP    2, STRESS PERIOD  25
  ---------------------------------------------------------------------------------------------------

     CUMULATIVE VOLUME      L**3       RATES FOR THIS TIME STEP      L**3/T          PACKAGE NAME    
     ------------------                 ------------------------                     ----------------

           IN:                                      IN:
           ---                                      ---
              STO-SS =    45398227.2526                STO-SS =       88080.8027     STORAGE                          
              STO-SY =     1389826.0645                STO-SY =        2729.0416     STORAGE                          
                 WEL =           0.0000                   WEL =           0.0000     WEL-1                            
                RCHA =    67029501.8015                  RCHA =       42750.0000     RCH-1                            
                 CHD =           0.0000                   CHD =           0.0000     CHD-FROM-IBOUND                  

            TOTAL IN =   113817555.1186              TOTAL IN =      133559.8444

          OUT:                                     OUT:
          ----                                     ----
              STO-SS =    32138818.0732                STO-SS =           0.0000     STORAGE                          
              STO-SY =      960715.3883                STO-SY =           0.0000     STORAGE                          
                 WEL =    13525342.5043                   WEL =       40000.0000     WEL-1                            
                RCHA =           0.0000                  RCHA =           0.0000     RCH-1                            
                 CHD =    67192683.3418                   CHD =       93559.8447     CHD-FROM-IBOUND                  

           TOTAL OUT =   113817559.3076             TOTAL OUT =      133559.8447

            IN - OUT =          -4.1890              IN - OUT =      -2.6515E-04

 PERCENT DISCREPANCY =          -0.00     PERCENT DISCREPANCY =          -0.00




         TIME SUMMARY AT END OF TIME STEP    2 IN STRESS PERIOD   25
                    SECONDS     MINUTES      HOURS       DAYS        YEARS
                    -----------------------------------------------------------
   TIME STEP LENGTH 1.94804E+05  3246.7      54.112      2.2547     6.17295E-03
 STRESS PERIOD TIME 3.57140E+05  5952.3      99.206      4.1336     1.13171E-02
         TOTAL TIME 6.08371E+07 1.01395E+06  16899.      704.13      1.9278    


end timestep


start timestep kper="25" kstp="3" mode="normal"

 UBDSV1 SAVING     FLOW-JA-FACE ON UNIT   1015 AT TIME STEP      3, STRESS PERIOD     25
 UBDSV06 SAVING              WEL IN MODEL MUMODEL          PACKAGE MUMODEL         CONNECTED TO MODEL MUMODEL          PACKAGE WEL-1            ON UNIT   1015 AT TIME STEP      3, STRESS PERIOD     25
 UBDSV06 SAVING             RCHA IN MODEL MUMODEL          PACKAGE MUMODEL         CONNECTED TO MODEL MUMODEL          PACKAGE RCH-1            ON UNIT   1015 AT TIME STEP      3, STRESS PERIOD     25

 WEL PACKAGE (WEL-1) FLOW RATES   PERIOD     25   STEP        3
 -----------------------------------------------
   NUMBER   CELLID                    RATE      
 -----------------------------------------------
     1      (1,5,5)              -40000.000     
     2      (1,11,5)              0.0000000     
     3      (1,5,5)               0.0000000     
 -----------------------------------------------




 CHD PACKAGE (CHD-FROM-IBOUND) FLOW RATES   PERIOD     25   STEP        3
 -----------------------------------------------
   NUMBER   CELLID                    RATE      
 -----------------------------------------------
     1      (1,1,1)              -5202.7928     
     2      (1,1,2)              -5201.8579     
     3      (1,1,3)              -5196.8772     
     4      (1,1,4)              -5178.9155     
     5      (1,1,5)              -5147.9583     
     6      (1,1,6)              -5178.9172     
     7      (1,1,7)              -5196.8804     
     8      (1,1,8)              -5201.8621     
     9      (1,1,9)              -5202.7974     
     10     (1,21,1)             -5202.9736     
     11     (1,21,2)             -5202.9724     
     12     (1,21,3)             -5202.9709     
     13     (1,21,4)             -5202.9697     
     14     (1,21,5)             -5202.9689     
     15     (1,21,6)             -5202.9687     
     16     (1,21,7)             -5202.9697     
     17     (1,21,8)             -5202.9718     
     18     (1,21,9)             -5202.9738     
 -----------------------------------------------




 HEAD WILL BE SAVED ON UNIT 1016 AT END OF TIME STEP    3, STRESS PERIOD   25


  VOLUME BUDGET FOR ENTIRE MODEL AT END OF TIME STEP    3, STRESS PERIOD  25
  ---------------------------------------------------------------------------------------------------

     CUMULATIVE VOLUME      L**3       RATES FOR THIS TIME STEP      L**3/T          PACKAGE NAME    
     ------------------                 ------------------------                     ----------------

           IN:                                      IN:
           ---                                      ---
              STO-SS =    45636475.6130                STO-SS =       88057.3455     STORAGE                          
              STO-SY =     1397207.6375                STO-SY =        2728.2527     STORAGE                          
                 WEL =           0.0000                   WEL =           0.0000     WEL-1                            
                RCHA =    67145166.3989                  RCHA =       42750.0000     RCH-1                            
                 CHD =           0.0000                   CHD =           0.0000     CHD-FROM-IBOUND                  

            TOTAL IN =   114178849.6494              TOTAL IN =      133535.5981

          OUT:                                     OUT:
          ----                                     ----
              STO-SS =    32138818.0732                STO-SS =           0.0000     STORAGE                          
              STO-SY =      960715.3883                STO-SY =           0.0000     STORAGE                          
                 WEL =    13633566.6890                   WEL =       40000.0000     WEL-1                            
                RCHA =           0.0000                  RCHA =           0.0000     RCH-1                            
                 CHD =    67445753.6880                   CHD =       93535.5982     CHD-FROM-IBOUND                  

           TOTAL OUT =   114178853.8386             TOTAL OUT =      133535.5982

            IN - OUT =          -4.1892              IN - OUT =      -6.1880E-05

 PERCENT DISCREPANCY =          -0.00     PERCENT DISCREPANCY =          -0.00




         TIME SUMMARY AT END OF TIME STEP    3 IN STRESS PERIOD   25
                    SECONDS     MINUTES      HOURS       DAYS        YEARS
                    -----------------------------------------------------------
   TIME STEP LENGTH 2.33764E+05  3896.1      64.935      2.7056     7.40754E-03
 STRESS PERIOD TIME 5.90904E+05  9848.4      164.14      6.8392     1.87246E-02
         TOTAL TIME 6.10709E+07 1.01785E+06  16964.      706.84      1.9352    


end timestep


start timestep kper="25" kstp="4" mode="normal"

 UBDSV1 SAVING     FLOW-JA-FACE ON UNIT   1015 AT TIME STEP      4, STRESS PERIOD     25
 UBDSV06 SAVING              WEL IN MODEL MUMODEL          PACKAGE MUMODEL         CONNECTED TO MODEL MUMODEL          PACKAGE WEL-1            ON UNIT   1015 AT TIME STEP      4, STRESS PERIOD     25
 UBDSV06 SAVING             RCHA IN MODEL MUMODEL          PACKAGE MUMODEL         CONNECTED TO MODEL MUMODEL          PACKAGE RCH-1            ON UNIT   1015 AT TIME STEP      4, STRESS PERIOD     25

 WEL PACKAGE (WEL-1) FLOW RATES   PERIOD     25   STEP        4
 -----------------------------------------------
   NUMBER   CELLID                    RATE      
 -----------------------------------------------
     1      (1,5,5)              -40000.000     
     2      (1,11,5)              0.0000000     
     3      (1,5,5)               0.0000000     
 -----------------------------------------------




 CHD PACKAGE (CHD-FROM-IBOUND) FLOW RATES   PERIOD     25   STEP        4
 -----------------------------------------------
   NUMBER   CELLID                    RATE      
 -----------------------------------------------
     1      (1,1,1)              -5201.3596     
     2      (1,1,2)              -5200.3826     
     3      (1,1,3)              -5195.2182     
     4      (1,1,4)              -5176.7460     
     5      (1,1,5)              -5145.1868     
     6      (1,1,6)              -5176.7476     
     7      (1,1,7)              -5195.2214     
     8      (1,1,8)              -5200.3868     
     9      (1,1,9)              -5201.3641     
     10     (1,21,1)             -5201.5505     
     11     (1,21,2)             -5201.5492     
     12     (1,21,3)             -5201.5477     
     13     (1,21,4)             -5201.5465     
     14     (1,21,5)             -5201.5458     
     15     (1,21,6)             -5201.5456     
     16     (1,21,7)             -5201.5466     
     17     (1,21,8)             -5201.5487     
     18     (1,21,9)             -5201.5507     
 -----------------------------------------------




 HEAD WILL BE SAVED ON UNIT 1016 AT END OF TIME STEP    4, STRESS PERIOD   25


  VOLUME BUDGET FOR ENTIRE MODEL AT END OF TIME STEP    4, STRESS PERIOD  25
  ---------------------------------------------------------------------------------------------------

     CUMULATIVE VOLUME      L**3       RATES FOR THIS TIME STEP      L**3/T          PACKAGE NAME    
     ------------------                 ------------------------                     ----------------

           IN:                                      IN:
           ---                                      ---
              STO-SS =    45922282.3780                STO-SS =       88029.2349     STORAGE                          
              STO-SY =     1406062.4631                STO-SY =        2727.3095     STORAGE                          
                 WEL =           0.0000                   WEL =           0.0000     WEL-1                            
                RCHA =    67283963.9157                  RCHA =       42750.0000     RCH-1                            
                 CHD =           0.0000                   CHD =           0.0000     CHD-FROM-IBOUND                  

            TOTAL IN =   114612308.7568              TOTAL IN =      133506.5444

          OUT:                                     OUT:
          ----                                     ----
              STO-SS =    32138818.0732                STO-SS =           0.0000     STORAGE                          
              STO-SY =      960715.3883                STO-SY =           0.0000     STORAGE                          
                 WEL =    13763435.7106                   WEL =       40000.0000     WEL-1                            
                RCHA =           0.0000                  RCHA =           0.0000     RCH-1                            
                 CHD =    67749343.7742                   CHD =       93506.5445     CHD-FROM-IBOUND                  

           TOTAL OUT =   114612312.9463             TOTAL OUT =      133506.5445

            IN - OUT =          -4.1895              IN - OUT =      -9.8789E-05

 PERCENT DISCREPANCY =          -0.00     PERCENT DISCREPANCY =          -0.00




         TIME SUMMARY AT END OF TIME STEP    4 IN STRESS PERIOD   25
                    SECONDS     MINUTES      HOURS       DAYS        YEARS
                    -----------------------------------------------------------
   TIME STEP LENGTH 2.80517E+05  4675.3      77.921      3.2467     8.88905E-03
 STRESS PERIOD TIME 8.71421E+05  14524.      242.06      10.086     2.76137E-02
         TOTAL TIME 6.13514E+07 1.02252E+06  17042.      710.09      1.9441    


end timestep


start timestep kper="25" kstp="5" mode="normal"

 UBDSV1 SAVING     FLOW-JA-FACE ON UNIT   1015 AT TIME STEP      5, STRESS PERIOD     25
 UBDSV06 SAVING              WEL IN MODEL MUMODEL          PACKAGE MUMODEL         CONNECTED TO MODEL MUMODEL          PACKAGE WEL-1            ON UNIT   1015 AT TIME STEP      5, STRESS PERIOD     25
 UBDSV06 SAVING             RCHA IN MODEL MUMODEL          PACKAGE MUMODEL         CONNECTED TO MODEL MUMODEL          PACKAGE RCH-1            ON UNIT   1015 AT TIME STEP      5, STRESS PERIOD     25

 WEL PACKAGE (WEL-1) FLOW RATES   PERIOD     25   STEP        5
 -----------------------------------------------
   NUMBER   CELLID                    RATE      
 -----------------------------------------------
     1      (1,5,5)              -40000.000     
     2      (1,11,5)              0.0000000     
     3      (1,5,5)               0.0000000     
 -----------------------------------------------




 CHD PACKAGE (CHD-FROM-IBOUND) FLOW RATES   PERIOD     25   STEP        5
 -----------------------------------------------
   NUMBER   CELLID                    RATE      
 -----------------------------------------------
     1      (1,1,1)              -5199.6472     
     2      (1,1,2)              -5198.6177     
     3      (1,1,3)              -5193.2267     
     4      (1,1,4)              -5174.1312     
     5      (1,1,5)              -5141.8462     
     6      (1,1,6)              -5174.1329     
     7      (1,1,7)              -5193.2298     
     8      (1,1,8)              -5198.6218     
     9      (1,1,9)              -5199.6517     
     10     (1,21,1)             -5199.8507     
     11     (1,21,2)             -5199.8495     
     12     (1,21,3)             -5199.8480     
     13     (1,21,4)             -5199.8468     
     14     (1,21,5)             -5199.8460     
     15     (1,21,6)             -5199.8459     
     16     (1,21,7)             -5199.8469     
     17     (1,21,8)             -5199.8490     
     18     (1,21,9)             -5199.8510     
 -----------------------------------------------




 HEAD WILL BE SAVED ON UNIT 1016 AT END OF TIME STEP    5, STRESS PERIOD   25


  VOLUME BUDGET FOR ENTIRE MODEL AT END OF TIME STEP    5, STRESS PERIOD  25
  ---------------------------------------------------------------------------------------------------

     CUMULATIVE VOLUME      L**3       RATES FOR THIS TIME STEP      L**3/T          PACKAGE NAME    
     ------------------                 ------------------------                     ----------------

           IN:                                      IN:
           ---                                      ---
              STO-SS =    46265119.2796                STO-SS =       87995.5557     STORAGE                          
              STO-SY =     1416683.8644                STO-SY =        2726.1829     STORAGE                          
                 WEL =           0.0000                   WEL =           0.0000     WEL-1                            
                RCHA =    67450520.9358                  RCHA =       42750.0000     RCH-1                            
                 CHD =           0.0000                   CHD =           0.0000     CHD-FROM-IBOUND                  

            TOTAL IN =   115132324.0798              TOTAL IN =      133471.7386

          OUT:                                     OUT:
          ----                                     ----
              STO-SS =    32138818.0732                STO-SS =           0.0000     STORAGE                          
              STO-SY =      960715.3883                STO-SY =           0.0000     STORAGE                          
                 WEL =    13919278.5365                   WEL =       40000.0000     WEL-1                            
                RCHA =           0.0000                  RCHA =           0.0000     RCH-1                            
                 CHD =    68113516.2719                   CHD =       93471.7387     CHD-FROM-IBOUND                  

           TOTAL OUT =   115132328.2699             TOTAL OUT =      133471.7387

            IN - OUT =          -4.1902              IN - OUT =      -1.6628E-04

 PERCENT DISCREPANCY =          -0.00     PERCENT DISCREPANCY =          -0.00




         TIME SUMMARY AT END OF TIME STEP    5 IN STRESS PERIOD   25
                    SECONDS     MINUTES      HOURS       DAYS        YEARS
                    -----------------------------------------------------------
   TIME STEP LENGTH 3.36621E+05  5610.3      93.506      3.8961     1.06669E-02
 STRESS PERIOD TIME 1.20804E+06  20134.      335.57      13.982     3.82805E-02
         TOTAL TIME 6.16880E+07 1.02813E+06  17136.      713.98      1.9548    


end timestep


start timestep kper="25" kstp="6" mode="normal"

 UBDSV1 SAVING     FLOW-JA-FACE ON UNIT   1015 AT TIME STEP      6, STRESS PERIOD     25
 UBDSV06 SAVING              WEL IN MODEL MUMODEL          PACKAGE MUMODEL         CONNECTED TO MODEL MUMODEL          PACKAGE WEL-1            ON UNIT   1015 AT TIME STEP      6, STRESS PERIOD     25
 UBDSV06 SAVING             RCHA IN MODEL MUMODEL          PACKAGE MUMODEL         CONNECTED TO MODEL MUMODEL          PACKAGE RCH-1            ON UNIT   1015 AT TIME STEP      6, STRESS PERIOD     25

 WEL PACKAGE (WEL-1) FLOW RATES   PERIOD     25   STEP        6
 -----------------------------------------------
   NUMBER   CELLID                    RATE      
 -----------------------------------------------
     1      (1,5,5)              -40000.000     
     2      (1,11,5)              0.0000000     
     3      (1,5,5)               0.0000000     
 -----------------------------------------------




 CHD PACKAGE (CHD-FROM-IBOUND) FLOW RATES   PERIOD     25   STEP        6
 -----------------------------------------------
   NUMBER   CELLID                    RATE      
 -----------------------------------------------
     1      (1,1,1)              -5197.6027     
     2      (1,1,2)              -5196.5074     
     3      (1,1,3)              -5190.8353     
     4      (1,1,4)              -5170.9770     
     5      (1,1,5)              -5137.8161     
     6      (1,1,6)              -5170.9786     
     7      (1,1,7)              -5190.8384     
     8      (1,1,8)              -5196.5114     
     9      (1,1,9)              -5197.6071     
     10     (1,21,1)             -5197.8224     
     11     (1,21,2)             -5197.8212     
     12     (1,21,3)             -5197.8197     
     13     (1,21,4)             -5197.8185     
     14     (1,21,5)             -5197.8178     
     15     (1,21,6)             -5197.8177     
     16     (1,21,7)             -5197.8186     
     17     (1,21,8)             -5197.8207     
     18     (1,21,9)             -5197.8227     
 -----------------------------------------------




 HEAD WILL BE SAVED ON UNIT 1016 AT END OF TIME STEP    6, STRESS PERIOD   25


  VOLUME BUDGET FOR ENTIRE MODEL AT END OF TIME STEP    6, STRESS PERIOD  25
  ---------------------------------------------------------------------------------------------------

     CUMULATIVE VOLUME      L**3       RATES FOR THIS TIME STEP      L**3/T          PACKAGE NAME    
     ------------------                 ------------------------                     ----------------

           IN:                                      IN:
           ---                                      ---
              STO-SS =    46676334.9565                STO-SS =       87955.2148     STORAGE                          
              STO-SY =     1429423.2587                STO-SY =        2724.8382     STORAGE                          
                 WEL =           0.0000                   WEL =           0.0000     WEL-1                            
                RCHA =    67650389.3601                  RCHA =       42750.0000     RCH-1                            
                 CHD =           0.0000                   CHD =           0.0000     CHD-FROM-IBOUND                  

            TOTAL IN =   115756147.5752              TOTAL IN =      133430.0530

          OUT:                                     OUT:
          ----                                     ----
              STO-SS =    32138818.0732                STO-SS =           0.0000     STORAGE                          
              STO-SY =      960715.3883                STO-SY =           0.0000     STORAGE                          
                 WEL =    14106289.9275                   WEL =       40000.0000     WEL-1                            
                RCHA =           0.0000                  RCHA =           0.0000     RCH-1                            
                 CHD =    68550328.3776                   CHD =       93430.0533     CHD-FROM-IBOUND                  

           TOTAL OUT =   115756151.7667             TOTAL OUT =      133430.0533

            IN - OUT =          -4.1915              IN - OUT =      -2.7987E-04

 PERCENT DISCREPANCY =          -0.00     PERCENT DISCREPANCY =          -0.00




         TIME SUMMARY AT END OF TIME STEP    6 IN STRESS PERIOD   25
                    SECONDS     MINUTES      HOURS       DAYS        YEARS
                    -----------------------------------------------------------
   TIME STEP LENGTH 4.03945E+05  6732.4      112.21      4.6753     1.28002E-02
 STRESS PERIOD TIME 1.61199E+06  26866.      447.77      18.657     5.10808E-02
         TOTAL TIME 6.20920E+07 1.03487E+06  17248.      718.66      1.9676    


end timestep


start timestep kper="25" kstp="7" mode="normal"

 UBDSV1 SAVING     FLOW-JA-FACE ON UNIT   1015 AT TIME STEP      7, STRESS PERIOD     25
 UBDSV06 SAVING              WEL IN MODEL MUMODEL          PACKAGE MUMODEL         CONNECTED TO MODEL MUMODEL          PACKAGE WEL-1            ON UNIT   1015 AT TIME STEP      7, STRESS PERIOD     25
 UBDSV06 SAVING             RCHA IN MODEL MUMODEL          PACKAGE MUMODEL         CONNECTED TO MODEL MUMODEL          PACKAGE RCH-1            ON UNIT   1015 AT TIME STEP      7, STRESS PERIOD     25

 WEL PACKAGE (WEL-1) FLOW RATES   PERIOD     25   STEP        7
 -----------------------------------------------
   NUMBER   CELLID                    RATE      
 -----------------------------------------------
     1      (1,5,5)              -40000.000     
     2      (1,11,5)              0.0000000     
     3      (1,5,5)               0.0000000     
 -----------------------------------------------




 CHD PACKAGE (CHD-FROM-IBOUND) FLOW RATES   PERIOD     25   STEP        7
 -----------------------------------------------
   NUMBER   CELLID                    RATE      
 -----------------------------------------------
     1      (1,1,1)              -5195.1640     
     2      (1,1,2)              -5193.9854     
     3      (1,1,3)              -5187.9630     
     4      (1,1,4)              -5167.1678     
     5      (1,1,5)              -5132.9495     
     6      (1,1,6)              -5167.1695     
     7      (1,1,7)              -5187.9661     
     8      (1,1,8)              -5193.9894     
     9      (1,1,9)              -5195.1684     
     10     (1,21,1)             -5195.4046     
     11     (1,21,2)             -5195.4034     
     12     (1,21,3)             -5195.4020     
     13     (1,21,4)             -5195.4008     
     14     (1,21,5)             -5195.4000     
     15     (1,21,6)             -5195.3999     
     16     (1,21,7)             -5195.4009     
     17     (1,21,8)             -5195.4030     
     18     (1,21,9)             -5195.4049     
 -----------------------------------------------




 HEAD WILL BE SAVED ON UNIT 1016 AT END OF TIME STEP    7, STRESS PERIOD   25


  VOLUME BUDGET FOR ENTIRE MODEL AT END OF TIME STEP    7, STRESS PERIOD  25
  ---------------------------------------------------------------------------------------------------

     CUMULATIVE VOLUME      L**3       RATES FOR THIS TIME STEP      L**3/T          PACKAGE NAME    
     ------------------                 ------------------------                     ----------------

           IN:                                      IN:
           ---                                      ---
              STO-SS =    47169522.7498                STO-SS =       87906.9078     STORAGE                          
              STO-SY =     1444701.5345                STO-SY =        2723.2344     STORAGE                          
                 WEL =           0.0000                   WEL =           0.0000     WEL-1                            
                RCHA =    67890231.4691                  RCHA =       42750.0000     RCH-1                            
                 CHD =           0.0000                   CHD =           0.0000     CHD-FROM-IBOUND                  

            TOTAL IN =   116504455.7534              TOTAL IN =      133380.1422

          OUT:                                     OUT:
          ----                                     ----
              STO-SS =    32138818.0732                STO-SS =           0.0000     STORAGE                          
              STO-SY =      960715.3883                STO-SY =           0.0000     STORAGE                          
                 WEL =    14330703.5968                   WEL =       40000.0000     WEL-1                            
                RCHA =           0.0000                  RCHA =           0.0000     RCH-1                            
                 CHD =    69074222.8891                   CHD =       93380.1427     CHD-FROM-IBOUND                  

           TOTAL OUT =   116504459.9475             TOTAL OUT =      133380.1427

            IN - OUT =          -4.1941              IN - OUT =      -4.6611E-04

 PERCENT DISCREPANCY =          -0.00     PERCENT DISCREPANCY =          -0.00




         TIME SUMMARY AT END OF TIME STEP    7 IN STRESS PERIOD   25
                    SECONDS     MINUTES      HOURS       DAYS        YEARS
                    -----------------------------------------------------------
   TIME STEP LENGTH 4.84734E+05  8078.9      134.65      5.6103     1.53603E-02
 STRESS PERIOD TIME 2.09672E+06  34945.      582.42      24.268     6.64410E-02
         TOTAL TIME 6.25767E+07 1.04295E+06  17382.      724.27      1.9829    


end timestep


start timestep kper="25" kstp="8" mode="normal"

 UBDSV1 SAVING     FLOW-JA-FACE ON UNIT   1015 AT TIME STEP      8, STRESS PERIOD     25
 UBDSV06 SAVING              WEL IN MODEL MUMODEL          PACKAGE MUMODEL         CONNECTED TO MODEL MUMODEL          PACKAGE WEL-1            ON UNIT   1015 AT TIME STEP      8, STRESS PERIOD     25
 UBDSV06 SAVING             RCHA IN MODEL MUMODEL          PACKAGE MUMODEL         CONNECTED TO MODEL MUMODEL          PACKAGE RCH-1            ON UNIT   1015 AT TIME STEP      8, STRESS PERIOD     25

 WEL PACKAGE (WEL-1) FLOW RATES   PERIOD     25   STEP        8
 -----------------------------------------------
   NUMBER   CELLID                    RATE      
 -----------------------------------------------
     1      (1,5,5)              -40000.000     
     2      (1,11,5)              0.0000000     
     3      (1,5,5)               0.0000000     
 -----------------------------------------------




 CHD PACKAGE (CHD-FROM-IBOUND) FLOW RATES   PERIOD     25   STEP        8
 -----------------------------------------------
   NUMBER   CELLID                    RATE      
 -----------------------------------------------
     1      (1,1,1)              -5192.2583     
     2      (1,1,2)              -5190.9734     
     3      (1,1,3)              -5184.5114     
     4      (1,1,4)              -5162.5618     
     5      (1,1,5)              -5127.0662     
     6      (1,1,6)              -5162.5634     
     7      (1,1,7)              -5184.5144     
     8      (1,1,8)              -5190.9774     
     9      (1,1,9)              -5192.2626     
     10     (1,21,1)             -5192.5261     
     11     (1,21,2)             -5192.5250     
     12     (1,21,3)             -5192.5235     
     13     (1,21,4)             -5192.5224     
     14     (1,21,5)             -5192.5216     
     15     (1,21,6)             -5192.5215     
     16     (1,21,7)             -5192.5225     
     17     (1,21,8)             -5192.5246     
     18     (1,21,9)             -5192.5265     
 -----------------------------------------------




 HEAD WILL BE SAVED ON UNIT 1016 AT END OF TIME STEP    8, STRESS PERIOD   25


  VOLUME BUDGET FOR ENTIRE MODEL AT END OF TIME STEP    8, STRESS PERIOD  25
  ---------------------------------------------------------------------------------------------------

     CUMULATIVE VOLUME      L**3       RATES FOR THIS TIME STEP      L**3/T          PACKAGE NAME    
     ------------------                 ------------------------                     ----------------

           IN:                                      IN:
           ---                                      ---
              STO-SS =    47760958.7687                STO-SS =       87849.0781     STORAGE                          
              STO-SY =     1463022.6021                STO-SY =        2721.3238     STORAGE                          
                 WEL =           0.0000                   WEL =           0.0000     WEL-1                            
                RCHA =    68178042.0000                  RCHA =       42750.0000     RCH-1                            
                 CHD =           0.0000                   CHD =           0.0000     CHD-FROM-IBOUND                  

            TOTAL IN =   117402023.3708              TOTAL IN =      133320.4019

          OUT:                                     OUT:
          ----                                     ----
              STO-SS =    32138818.0732                STO-SS =           0.0000     STORAGE                          
              STO-SY =      960715.3883                STO-SY =           0.0000     STORAGE                          
                 WEL =    14600000.0000                   WEL =       40000.0000     WEL-1                            
                RCHA =           0.0000                  RCHA =           0.0000     RCH-1                            
                 CHD =    69702494.1085                   CHD =       93320.4027     CHD-FROM-IBOUND                  

           TOTAL OUT =   117402027.5700             TOTAL OUT =      133320.4027

            IN - OUT =          -4.1992              IN - OUT =      -7.6788E-04

 PERCENT DISCREPANCY =          -0.00     PERCENT DISCREPANCY =          -0.00




         TIME SUMMARY AT END OF TIME STEP    8 IN STRESS PERIOD   25
                    SECONDS     MINUTES      HOURS       DAYS        YEARS
                    -----------------------------------------------------------
   TIME STEP LENGTH 5.81680E+05  9694.7      161.58      6.7324     1.84323E-02
 STRESS PERIOD TIME 2.67840E+06  44640.      744.00      31.000     8.48734E-02
         TOTAL TIME 6.31584E+07 1.05264E+06  17544.      731.00      2.0014    


end timestep

